26
  -OEChem-08152602163D

 30 31  0     1  0  0  0  0  0999 V2000
   -0.8007    3.1719   -0.3307 O   0  0  0  0  0  0  0  0  0  0  0  0
    1.9377    2.1145   -0.2359 O   0  0  0  0  0  0  0  0  0  0  0  0
   -2.2221   -2.4151   -1.7057 O   0  0  0  0  0  0  0  0  0  0  0  0
    1.9917   -0.8840    1.8960 O   0  0  0  0  0  0  0  0  0  0  0  0
    4.3859   -1.2007    0.7754 O   0  0  0  0  0  0  0  0  0  0  0  0
   -0.3618    1.8663   -0.7890 N   0  0  2  0  0  0  0  0  0  0  0  0
    0.1415   -0.8822   -0.4998 N   0  0  0  0  0  0  0  0  0  0  0  0
   -2.1087    0.9087    0.6957 N   0  0  0  0  0  0  0  0  0  0  0  0
   -2.8870   -1.2438    0.1658 N   0  0  0  0  0  0  0  0  0  0  0  0
   -3.4730   -0.2528    2.1916 N   0  0  0  0  0  0  0  0  0  0  0  0
   -1.5230    0.9782   -0.6541 C   0  0  2  0  0  0  0  0  0  0  0  0
   -1.0610   -0.3800   -1.1699 C   0  0  2  0  0  0  0  0  0  0  0  0
    0.7181    1.4779    0.1121 C   0  0  1  0  0  0  0  0  0  0  0  0
    0.9282   -0.0185    0.0396 C   0  0  0  0  0  0  0  0  0  0  0  0
   -2.1190   -1.4370   -0.9686 C   0  0  0  0  0  0  0  0  0  0  0  0
   -2.7933   -0.1447    1.0071 C   0  0  0  0  0  0  0  0  0  0  0  0
    2.1319   -0.5700    0.7254 C   0  0  0  0  0  0  0  0  0  0  0  0
    3.4811   -0.7471    0.0895 C   0  0  0  0  0  0  0  0  0  0  0  0
    3.6333   -0.3415   -1.3444 C   0  0  0  0  0  0  0  0  0  0  0  0
   -2.3089    1.3506   -1.3254 H   0  0  0  0  0  0  0  0  0  0  0  0
   -0.8601   -0.3200   -2.2481 H   0  0  0  0  0  0  0  0  0  0  0  0
    0.4945    1.7244    1.1576 H   0  0  0  0  0  0  0  0  0  0  0  0
   -3.5377   -1.9809    0.4211 H   0  0  0  0  0  0  0  0  0  0  0  0
   -0.6370    3.6889   -1.1378 H   0  0  0  0  0  0  0  0  0  0  0  0
    1.9893    2.1072   -1.2068 H   0  0  0  0  0  0  0  0  0  0  0  0
   -4.0034   -1.0855    2.4233 H   0  0  0  0  0  0  0  0  0  0  0  0
   -3.4634    0.4985    2.8728 H   0  0  0  0  0  0  0  0  0  0  0  0
    4.4949   -0.8653   -1.7697 H   0  0  0  0  0  0  0  0  0  0  0  0
    3.8092    0.7329   -1.4140 H   0  0  0  0  0  0  0  0  0  0  0  0
    2.7550   -0.6274   -1.9274 H   0  0  0  0  0  0  0  0  0  0  0  0
  1  6  1  0  0  0  0
  1 24  1  0  0  0  0
  2 13  1  0  0  0  0
  2 25  1  0  0  0  0
  3 15  2  0  0  0  0
  4 17  2  0  0  0  0
  5 18  2  0  0  0  0
  6 11  1  0  0  0  0
  6 13  1  0  0  0  0
  7 12  1  0  0  0  0
  7 14  2  0  0  0  0
  8 11  1  0  0  0  0
  8 16  2  0  0  0  0
  9 15  1  0  0  0  0
  9 16  1  0  0  0  0
  9 23  1  0  0  0  0
 10 16  1  0  0  0  0
 10 26  1  0  0  0  0
 10 27  1  0  0  0  0
 11 12  1  0  0  0  0
 11 20  1  0  0  0  0
 12 15  1  0  0  0  0
 12 21  1  0  0  0  0
 13 14  1  0  0  0  0
 13 22  1  0  0  0  0
 14 17  1  0  0  0  0
 17 18  1  0  0  0  0
 18 19  1  0  0  0  0
 19 28  1  0  0  0  0
 19 29  1  0  0  0  0
 19 30  1  0  0  0  0
M  END
> <PUBCHEM_COMPOUND_CID>
26

> <PUBCHEM_CONFORMER_RMSD>
0.6

> <PUBCHEM_CONFORMER_DIVERSEORDER>
81
96
118
199
19
201
171
8
15
128
125
77
72
150
180
95
104
85
92
137
167
141
91
164
160
10
66
159
73
123
3
78
131
186
149
79
110
174
12
18
202
153
109
194
129
76
60
170
166
169
138
182
127
173
86
148
130
65
11
181
101
70
188
178
106
98
157
74
2
32
172
112
165
126
136
97
124
191
196
89
184
90
16
62
102
183
33
144
1
193
154
29
179
203
59
152
83
67
63
177
5
200
113
100
155
145
192
185
14
6
198
25
139
99
147
4
158
187
22
161
24
140
9
119
133
35
195
190
151
20
61
162
84
93
13
7
111
135
132
39
197
116
51
17
168
121
80
142
21
163
107
122
134
189
176
146
30
58
117
75
87
175
46
88
115
56
143
36
31
52
120
42
47
50
108
37
28
103
105
68
34
64
26
55
71
54
27
23
57
43
82
156
49
69
38
40
53
45
94
48
114
41
44

> <PUBCHEM_MMFF94_PARTIAL_CHARGES>
24
1 -0.3
10 -0.85
11 0.52
12 0.31
13 0.61
14 0.39
15 0.57
16 0.56
17 0.57
18 0.51
19 0.06
2 -0.68
23 0.37
24 0.4
25 0.4
26 0.4
27 0.4
3 -0.57
4 -0.57
5 -0.57
6 -0.64
7 -0.7
8 -0.7
9 -0.49

> <PUBCHEM_EFFECTIVE_ROTOR_COUNT>
2.6

> <PUBCHEM_PHARMACOPHORE_FEATURES>
11
1 1 anion
1 10 donor
1 2 acceptor
1 2 donor
1 3 acceptor
1 4 acceptor
1 5 acceptor
1 7 acceptor
1 9 donor
6 6 7 11 12 13 14 rings
6 8 9 11 12 15 16 rings

> <PUBCHEM_HEAVY_ATOM_COUNT>
19

> <PUBCHEM_ATOM_DEF_STEREO_COUNT>
0

> <PUBCHEM_ATOM_UDEF_STEREO_COUNT>
3

> <PUBCHEM_BOND_DEF_STEREO_COUNT>
0

> <PUBCHEM_BOND_UDEF_STEREO_COUNT>
0

> <PUBCHEM_ISOTOPIC_ATOM_COUNT>
0

> <PUBCHEM_COMPONENT_COUNT>
1

> <PUBCHEM_CACTVS_TAUTO_COUNT>
10

> <PUBCHEM_CONFORMER_ID>
0000001A00000051

> <PUBCHEM_MMFF94_ENERGY>
39.1194

> <PUBCHEM_FEATURE_SELFOVERLAP>
56.026

> <PUBCHEM_SHAPE_FINGERPRINT>
10989021 7 18339633568031497679
11086676 242 18338529576768799104
11132069 177 18273213075831029582
11578080 2 17985519343117028249
12251169 10 18201727249298511995
12553582 1 18408603673553222158
12596599 1 18201158844620898398
13024252 1 16951123967933721095
13140716 1 18341327872468669849
13221675 6 18334861588972599386
14817 1 17536340045524808805
15276787 5 16343712001609706898
15309172 13 18271808973475334867
15375462 189 18186524293357537354
15906896 17 17899404290890496845
16752209 62 18265318517739779629
16945 1 18342453690739491964
18927931 339 18263914450746208042
19868273 325 18336537248830067940
200 152 17458058253237237994
20361792 2 18334848454688405750
20645476 183 17317879153511497900
20871998 184 18267022756462583717
21041028 32 18334306365497129696
21524375 3 17252560410384879565
21731516 1 18334565854614873162
22112679 90 18271530908781616413
22445834 79 18125447659596073513
23402539 116 18114738245049505538
23419403 2 13784707625654416729
23598288 3 18116433631232523452
2748010 2 18265592424889429132
427121 178 16413267103489490011
6992083 37 18201443605379199559
83771 10 17749401364034343833

> <PUBCHEM_SHAPE_MULTIPOLES>
336.76
6.01
2.25
1.54
3.79
1.34
0.42
-2.78
1.52
-0.75
-0.79
-0.59
-0.57
-0.74

> <PUBCHEM_SHAPE_SELFOVERLAP>
713.682

> <PUBCHEM_SHAPE_VOLUME>
181.8

> <PUBCHEM_COORDINATE_TYPE>
2
5
10

$$$$
