430
  -OEChem-08152602463D

 30 31  0     1  0  0  0  0  0999 V2000
    1.9178   -0.2245    0.7825 N   0  0  2  0  0  0  0  0  0  0  0  0
   -2.2437    0.7728    0.3070 N   0  3  0  0  0  0  0  0  0  0  0  0
    1.1975   -0.4860   -0.4797 C   0  0  2  0  0  0  0  0  0  0  0  0
    1.7343    0.5714   -1.4620 C   0  0  0  0  0  0  0  0  0  0  0  0
    2.7996    1.3320   -0.6850 C   0  0  0  0  0  0  0  0  0  0  0  0
    3.2039    0.3642    0.4088 C   0  0  0  0  0  0  0  0  0  0  0  0
   -0.3067   -0.4222   -0.3173 C   0  0  0  0  0  0  0  0  0  0  0  0
    2.0789   -1.4140    1.6090 C   0  0  0  0  0  0  0  0  0  0  0  0
   -0.9119    0.7268    0.1658 C   0  0  0  0  0  0  0  0  0  0  0  0
   -1.0995   -1.5143   -0.6494 C   0  0  0  0  0  0  0  0  0  0  0  0
   -2.4802   -1.4384   -0.4927 C   0  0  0  0  0  0  0  0  0  0  0  0
   -3.0340   -0.2636   -0.0045 C   0  0  0  0  0  0  0  0  0  0  0  0
   -2.8562    1.9958    0.8175 C   0  0  0  0  0  0  0  0  0  0  0  0
    1.4824   -1.4709   -0.8772 H   0  0  0  0  0  0  0  0  0  0  0  0
    0.9775    1.2558   -1.8597 H   0  0  0  0  0  0  0  0  0  0  0  0
    2.2015    0.0682   -2.3180 H   0  0  0  0  0  0  0  0  0  0  0  0
    2.3660    2.2412   -0.2503 H   0  0  0  0  0  0  0  0  0  0  0  0
    3.6425    1.6260   -1.3175 H   0  0  0  0  0  0  0  0  0  0  0  0
    3.6799    0.8806    1.2482 H   0  0  0  0  0  0  0  0  0  0  0  0
    3.8983   -0.3875    0.0125 H   0  0  0  0  0  0  0  0  0  0  0  0
    1.1040   -1.8180    1.9020 H   0  0  0  0  0  0  0  0  0  0  0  0
    2.6389   -2.2045    1.0968 H   0  0  0  0  0  0  0  0  0  0  0  0
    2.6086   -1.1645    2.5349 H   0  0  0  0  0  0  0  0  0  0  0  0
   -0.3608    1.6184    0.4403 H   0  0  0  0  0  0  0  0  0  0  0  0
   -0.6574   -2.4305   -1.0307 H   0  0  0  0  0  0  0  0  0  0  0  0
   -3.1123   -2.2819   -0.7488 H   0  0  0  0  0  0  0  0  0  0  0  0
   -4.1014   -0.1414    0.1341 H   0  0  0  0  0  0  0  0  0  0  0  0
   -3.0302    2.6592   -0.0338 H   0  0  0  0  0  0  0  0  0  0  0  0
   -3.7991    1.7579    1.3175 H   0  0  0  0  0  0  0  0  0  0  0  0
   -2.1832    2.4648    1.5407 H   0  0  0  0  0  0  0  0  0  0  0  0
  1  3  1  0  0  0  0
  1  6  1  0  0  0  0
  1  8  1  0  0  0  0
  2  9  1  0  0  0  0
  2 12  2  0  0  0  0
  2 13  1  0  0  0  0
  3  4  1  0  0  0  0
  3  7  1  0  0  0  0
  3 14  1  0  0  0  0
  4  5  1  0  0  0  0
  4 15  1  0  0  0  0
  4 16  1  0  0  0  0
  5  6  1  0  0  0  0
  5 17  1  0  0  0  0
  5 18  1  0  0  0  0
  6 19  1  0  0  0  0
  6 20  1  0  0  0  0
  7  9  2  0  0  0  0
  7 10  1  0  0  0  0
  8 21  1  0  0  0  0
  8 22  1  0  0  0  0
  8 23  1  0  0  0  0
  9 24  1  0  0  0  0
 10 11  2  0  0  0  0
 10 25  1  0  0  0  0
 11 12  1  0  0  0  0
 11 26  1  0  0  0  0
 12 27  1  0  0  0  0
 13 28  1  0  0  0  0
 13 29  1  0  0  0  0
 13 30  1  0  0  0  0
M  CHG  1   2   1
M  END
> <PUBCHEM_COMPOUND_CID>
430

> <PUBCHEM_CONFORMER_RMSD>
0.6

> <PUBCHEM_CONFORMER_DIVERSEORDER>
1
14
7
3
12
6
16
8
2
15
4
10
5
9
11
13

> <PUBCHEM_MMFF94_PARTIAL_CHARGES>
15
1 -0.81
10 -0.15
11 -0.15
12 0.21
13 0.49
2 -0.21
24 0.15
25 0.15
26 0.15
27 0.15
3 0.41
6 0.27
7 -0.14
8 0.27
9 0.21

> <PUBCHEM_EFFECTIVE_ROTOR_COUNT>
2

> <PUBCHEM_PHARMACOPHORE_FEATURES>
3
1 1 cation
5 1 3 4 5 6 rings
6 2 7 9 10 11 12 rings

> <PUBCHEM_HEAVY_ATOM_COUNT>
13

> <PUBCHEM_ATOM_DEF_STEREO_COUNT>
0

> <PUBCHEM_ATOM_UDEF_STEREO_COUNT>
1

> <PUBCHEM_BOND_DEF_STEREO_COUNT>
0

> <PUBCHEM_BOND_UDEF_STEREO_COUNT>
0

> <PUBCHEM_ISOTOPIC_ATOM_COUNT>
0

> <PUBCHEM_COMPONENT_COUNT>
1

> <PUBCHEM_CACTVS_TAUTO_COUNT>
1

> <PUBCHEM_CONFORMER_ID>
000001AE00000001

> <PUBCHEM_MMFF94_ENERGY>
33.365

> <PUBCHEM_FEATURE_SELFOVERLAP>
15.223

> <PUBCHEM_SHAPE_FINGERPRINT>
10219947 1 16805597114412707636
10857977 72 17774999150106832999
11471102 22 16370716054727911868
12326174 3 16515950524245076800
12932764 1 17894916187225191829
13380536 127 18341611542221134923
13538477 17 18337104669886895615
13764800 53 17988375792726113345
13839132 238 17917156004746711829
14144814 61 18409728460720240917
15279307 12 18260546757571629010
15669948 3 18272083950351097807
15775835 57 18408890620006992624
16945 1 18131067181847476631
17357990 137 18337964376268397248
201361 129 18261114067280378368
20510252 161 18060708303336155873
20559304 39 18409444795452699178
20645464 45 16917343749149776219
22445834 79 18187076230919950514
22802520 49 16844472452151343460
23236772 104 18263084473236304881
23402539 116 18059282262487915087
23598291 2 18261392187581727590
25610 171 17774995804242796835
2748010 2 18056778537257073295
3248919 1 18342731897367409647
369184 2 17530679931226307095
7364860 26 18271528585478960126
77492 1 18260827124456780998
8030462 33 18335699485299383311
88987 49 18059568083654887667

> <PUBCHEM_SHAPE_MULTIPOLES>
257.57
5.33
1.73
1.21
0.13
0.2
-0.12
1.25
-0.62
0.85
-0.24
-0.71
-0.14
-1.3

> <PUBCHEM_SHAPE_SELFOVERLAP>
535.548

> <PUBCHEM_SHAPE_VOLUME>
148.9

> <PUBCHEM_COORDINATE_TYPE>
2
5
10

$$$$
