557
  -OEChem-08152602563D

 20 20  0     1  0  0  0  0  0999 V2000
   -2.4151    0.7588    0.4321 O   0  0  0  0  0  0  0  0  0  0  0  0
   -1.7140   -0.8987   -0.9669 O   0  0  0  0  0  0  0  0  0  0  0  0
    0.7979   -0.7553   -0.1068 N   0  0  1  0  0  0  0  0  0  0  0  0
   -0.1571    0.1363    0.5597 C   0  0  1  0  0  0  0  0  0  0  0  0
    0.3592    1.5535    0.3107 C   0  0  0  0  0  0  0  0  0  0  0  0
    1.6168    1.3682   -0.5257 C   0  0  0  0  0  0  0  0  0  0  0  0
    2.0692   -0.0337   -0.1671 C   0  0  0  0  0  0  0  0  0  0  0  0
    0.9298   -2.0482    0.5517 C   0  0  0  0  0  0  0  0  0  0  0  0
   -1.4867   -0.0809   -0.0877 C   0  0  0  0  0  0  0  0  0  0  0  0
   -0.2375   -0.0628    1.6354 H   0  0  0  0  0  0  0  0  0  0  0  0
    0.6283    2.0173    1.2676 H   0  0  0  0  0  0  0  0  0  0  0  0
   -0.3481    2.2170   -0.1973 H   0  0  0  0  0  0  0  0  0  0  0  0
    1.3701    1.4308   -1.5928 H   0  0  0  0  0  0  0  0  0  0  0  0
    2.3763    2.1241   -0.3053 H   0  0  0  0  0  0  0  0  0  0  0  0
    2.7415   -0.4476   -0.9247 H   0  0  0  0  0  0  0  0  0  0  0  0
    2.5837   -0.0286    0.8023 H   0  0  0  0  0  0  0  0  0  0  0  0
    1.2840   -1.9541    1.5846 H   0  0  0  0  0  0  0  0  0  0  0  0
    1.6355   -2.6829    0.0047 H   0  0  0  0  0  0  0  0  0  0  0  0
   -0.0282   -2.5788    0.5658 H   0  0  0  0  0  0  0  0  0  0  0  0
   -3.2956    0.6330    0.0183 H   0  0  0  0  0  0  0  0  0  0  0  0
  1  9  1  0  0  0  0
  1 20  1  0  0  0  0
  2  9  2  0  0  0  0
  3  4  1  0  0  0  0
  3  7  1  0  0  0  0
  3  8  1  0  0  0  0
  4  5  1  0  0  0  0
  4  9  1  0  0  0  0
  4 10  1  0  0  0  0
  5  6  1  0  0  0  0
  5 11  1  0  0  0  0
  5 12  1  0  0  0  0
  6  7  1  0  0  0  0
  6 13  1  0  0  0  0
  6 14  1  0  0  0  0
  7 15  1  0  0  0  0
  7 16  1  0  0  0  0
  8 17  1  0  0  0  0
  8 18  1  0  0  0  0
  8 19  1  0  0  0  0
M  END
> <PUBCHEM_COMPOUND_CID>
557

> <PUBCHEM_CONFORMER_RMSD>
0.4

> <PUBCHEM_CONFORMER_DIVERSEORDER>
1
2
7
4
8
6
9
5
3

> <PUBCHEM_MMFF94_PARTIAL_CHARGES>
8
1 -0.65
2 -0.57
20 0.5
3 -0.81
4 0.33
7 0.27
8 0.27
9 0.66

> <PUBCHEM_EFFECTIVE_ROTOR_COUNT>
2

> <PUBCHEM_PHARMACOPHORE_FEATURES>
5
1 1 acceptor
1 2 acceptor
1 3 cation
3 1 2 9 anion
5 3 4 5 6 7 rings

> <PUBCHEM_HEAVY_ATOM_COUNT>
9

> <PUBCHEM_ATOM_DEF_STEREO_COUNT>
0

> <PUBCHEM_ATOM_UDEF_STEREO_COUNT>
1

> <PUBCHEM_BOND_DEF_STEREO_COUNT>
0

> <PUBCHEM_BOND_UDEF_STEREO_COUNT>
0

> <PUBCHEM_ISOTOPIC_ATOM_COUNT>
0

> <PUBCHEM_COMPONENT_COUNT>
1

> <PUBCHEM_CACTVS_TAUTO_COUNT>
1

> <PUBCHEM_CONFORMER_ID>
0000022D00000001

> <PUBCHEM_MMFF94_ENERGY>
12.1133

> <PUBCHEM_FEATURE_SELFOVERLAP>
25.427

> <PUBCHEM_SHAPE_FINGERPRINT>
12423570 1 12501830890205896427
137420 1 13104197528013133298
16945 1 18334857173519482684
18185500 45 18341609270083202034
21040471 1 18120939661801009072
23211744 25 18055070131835794905
23552423 10 18410013234237194223
29004967 10 18115033999900685216
5084963 1 17314503936181502206

> <PUBCHEM_SHAPE_MULTIPOLES>
168.5
2.63
1.8
0.81
0.9
0.5
-0.05
-0.36
-0.3
-0.65
0.2
0.12
0.05
-0.39

> <PUBCHEM_SHAPE_SELFOVERLAP>
335.076

> <PUBCHEM_SHAPE_VOLUME>
102.4

> <PUBCHEM_COORDINATE_TYPE>
2
5
10

$$$$
