583
  -OEChem-08152602583D

 29 30  0     1  0  0  0  0  0999 V2000
   -3.3856   -1.3737   -0.1173 O   0  0  0  0  0  0  0  0  0  0  0  0
   -1.7540    0.0846    0.7523 N   0  0  0  0  0  0  0  0  0  0  0  0
    2.2047   -1.0107   -0.1668 N   0  3  0  0  0  0  0  0  0  0  0  0
   -0.8572    1.1110    0.2437 C   0  0  2  0  0  0  0  0  0  0  0  0
   -1.4733    1.4521   -1.1127 C   0  0  0  0  0  0  0  0  0  0  0  0
   -2.1908    0.1763   -1.5441 C   0  0  0  0  0  0  0  0  0  0  0  0
    0.5927    0.6851    0.1385 C   0  0  0  0  0  0  0  0  0  0  0  0
   -2.5575   -0.4828   -0.2362 C   0  0  0  0  0  0  0  0  0  0  0  0
   -1.7828   -0.2802    2.1551 C   0  0  0  0  0  0  0  0  0  0  0  0
    0.9190   -0.6441   -0.0765 C   0  0  0  0  0  0  0  0  0  0  0  0
    1.6131    1.6207    0.2568 C   0  0  0  0  0  0  0  0  0  0  0  0
    2.9397    1.2116    0.1586 C   0  0  0  0  0  0  0  0  0  0  0  0
    3.2104   -0.1321   -0.0569 C   0  0  0  0  0  0  0  0  0  0  0  0
    2.5217   -2.4177   -0.3944 C   0  0  0  0  0  0  0  0  0  0  0  0
   -0.9306    1.9764    0.9145 H   0  0  0  0  0  0  0  0  0  0  0  0
   -0.7559    1.8032   -1.8612 H   0  0  0  0  0  0  0  0  0  0  0  0
   -2.2230    2.2432   -0.9789 H   0  0  0  0  0  0  0  0  0  0  0  0
   -3.0839    0.3946   -2.1348 H   0  0  0  0  0  0  0  0  0  0  0  0
   -1.5272   -0.4901   -2.1033 H   0  0  0  0  0  0  0  0  0  0  0  0
   -2.0422    0.6046    2.7425 H   0  0  0  0  0  0  0  0  0  0  0  0
   -2.5271   -1.0616    2.3288 H   0  0  0  0  0  0  0  0  0  0  0  0
   -0.7977   -0.6458    2.4553 H   0  0  0  0  0  0  0  0  0  0  0  0
    0.1904   -1.4359   -0.1919 H   0  0  0  0  0  0  0  0  0  0  0  0
    1.3887    2.6706    0.4236 H   0  0  0  0  0  0  0  0  0  0  0  0
    3.7473    1.9303    0.2470 H   0  0  0  0  0  0  0  0  0  0  0  0
    4.2216   -0.5099   -0.1478 H   0  0  0  0  0  0  0  0  0  0  0  0
    2.4473   -2.6045   -1.4690 H   0  0  0  0  0  0  0  0  0  0  0  0
    3.5316   -2.6369   -0.0375 H   0  0  0  0  0  0  0  0  0  0  0  0
    1.8107   -3.0402    0.1562 H   0  0  0  0  0  0  0  0  0  0  0  0
  1  8  2  0  0  0  0
  2  4  1  0  0  0  0
  2  8  1  0  0  0  0
  2  9  1  0  0  0  0
  3 10  1  0  0  0  0
  3 13  2  0  0  0  0
  3 14  1  0  0  0  0
  4  5  1  0  0  0  0
  4  7  1  0  0  0  0
  4 15  1  0  0  0  0
  5  6  1  0  0  0  0
  5 16  1  0  0  0  0
  5 17  1  0  0  0  0
  6  8  1  0  0  0  0
  6 18  1  0  0  0  0
  6 19  1  0  0  0  0
  7 10  2  0  0  0  0
  7 11  1  0  0  0  0
  9 20  1  0  0  0  0
  9 21  1  0  0  0  0
  9 22  1  0  0  0  0
 10 23  1  0  0  0  0
 11 12  2  0  0  0  0
 11 24  1  0  0  0  0
 12 13  1  0  0  0  0
 12 25  1  0  0  0  0
 13 26  1  0  0  0  0
 14 27  1  0  0  0  0
 14 28  1  0  0  0  0
 14 29  1  0  0  0  0
M  CHG  1   3   1
M  END
> <PUBCHEM_COMPOUND_CID>
583

> <PUBCHEM_CONFORMER_RMSD>
0.6

> <PUBCHEM_CONFORMER_DIVERSEORDER>
1
11
12
4
5
6
10
7
9
8
2
3

> <PUBCHEM_MMFF94_PARTIAL_CHARGES>
17
1 -0.57
10 0.21
11 -0.15
12 -0.15
13 0.21
14 0.49
2 -0.66
23 0.15
24 0.15
25 0.15
26 0.15
3 -0.21
4 0.44
6 0.06
7 -0.14
8 0.57
9 0.3

> <PUBCHEM_EFFECTIVE_ROTOR_COUNT>
1.8

> <PUBCHEM_PHARMACOPHORE_FEATURES>
3
1 1 acceptor
5 2 4 5 6 8 rings
6 3 7 10 11 12 13 rings

> <PUBCHEM_HEAVY_ATOM_COUNT>
14

> <PUBCHEM_ATOM_DEF_STEREO_COUNT>
0

> <PUBCHEM_ATOM_UDEF_STEREO_COUNT>
1

> <PUBCHEM_BOND_DEF_STEREO_COUNT>
0

> <PUBCHEM_BOND_UDEF_STEREO_COUNT>
0

> <PUBCHEM_ISOTOPIC_ATOM_COUNT>
0

> <PUBCHEM_COMPONENT_COUNT>
1

> <PUBCHEM_CACTVS_TAUTO_COUNT>
2

> <PUBCHEM_CONFORMER_ID>
0000024700000001

> <PUBCHEM_MMFF94_ENERGY>
35.8912

> <PUBCHEM_FEATURE_SELFOVERLAP>
15.223

> <PUBCHEM_SHAPE_FINGERPRINT>
107287 299 18262811769031328916
11137873 295 18266179422427849126
11578080 2 16986276497014364593
12716758 59 17168138988401641233
13380536 127 16343707625043274792
14787075 74 16264598029860548049
15207287 21 17969769963923529202
15219456 202 18335130994922663205
15375462 189 17560232669245730287
15852999 172 16298652941314423043
15906896 17 17415847894794754897
16945 1 18411423946663881192
17844478 74 18259990391813167069
17990270 104 18337106770389374536
18534176 82 17023187157913265041
19422 9 17346052133413220068
200 152 18059564806610730245
20201158 50 18334009514447295906
20645477 70 18341039757789284439
21501502 16 18336828597936884180
22445834 79 17989492921892986203
22802520 49 18187922807528522956
23402539 116 17096347570856670365
23419403 2 13199714688678147640
23557571 272 16516832400952607836
23559900 14 16878213269085163128
2748010 2 18337107852694869940
77492 1 17346600789393726913
81228 2 17821730498927354997

> <PUBCHEM_SHAPE_MULTIPOLES>
272.28
5.19
1.85
1.29
0.7
0.54
-0.43
1.45
0.42
1.11
0.26
-1.19
0
0.57

> <PUBCHEM_SHAPE_SELFOVERLAP>
573.201

> <PUBCHEM_SHAPE_VOLUME>
156.5

> <PUBCHEM_COORDINATE_TYPE>
2
5
10

$$$$
