579
  -OEChem-08152602582D

 51 52  0     1  0  0  0  0  0999 V2000
    6.0010   -0.4050    0.0000 O   0  0  0  0  0  0  0  0  0  0  0  0
    4.2690   -0.4050    0.0000 O   0  0  0  0  0  0  0  0  0  0  0  0
    7.7331    0.5950    0.0000 O   0  0  0  0  0  0  0  0  0  0  0  0
    4.2690    0.5950    0.0000 O   0  0  0  0  0  0  0  0  0  0  0  0
    7.7331    2.5950    0.0000 O   0  0  0  0  0  0  0  0  0  0  0  0
    4.2690    2.5950    0.0000 O   0  0  0  0  0  0  0  0  0  0  0  0
    6.0010    3.5950    0.0000 O   0  0  0  0  0  0  0  0  0  0  0  0
    4.2690   -3.4050    0.0000 O   0  0  0  0  0  0  0  0  0  0  0  0
    2.5369   -2.4050    0.0000 O   0  0  0  0  0  0  0  0  0  0  0  0
    2.5369    0.5950    0.0000 O   0  0  0  0  0  0  0  0  0  0  0  0
    5.1350   -3.9050    0.0000 O   0  0  0  0  0  0  0  0  0  0  0  0
    6.0010   -2.4050    0.0000 N   0  0  0  0  0  0  0  0  0  0  0  0
    6.0010    0.5950    0.0000 C   0  0  0  0  0  0  0  0  0  0  0  0
    6.8671    1.0950    0.0000 C   0  0  3  0  0  0  0  0  0  0  0  0
    5.1350    1.0950    0.0000 C   0  0  3  0  0  0  0  0  0  0  0  0
    6.8671    2.0950    0.0000 C   0  0  3  0  0  0  0  0  0  0  0  0
    5.1350    2.0950    0.0000 C   0  0  3  0  0  0  0  0  0  0  0  0
    6.0010    2.5950    0.0000 C   0  0  0  0  0  0  0  0  0  0  0  0
    5.1350   -0.9050    0.0000 C   0  0  3  0  0  0  0  0  0  0  0  0
    5.1350   -1.9050    0.0000 C   0  0  3  0  0  0  0  0  0  0  0  0
    4.2690   -2.4050    0.0000 C   0  0  3  0  0  0  0  0  0  0  0  0
    3.4030   -1.9050    0.0000 C   0  0  3  0  0  0  0  0  0  0  0  0
    3.4030   -0.9050    0.0000 C   0  0  3  0  0  0  0  0  0  0  0  0
    2.5369   -0.4050    0.0000 C   0  0  0  0  0  0  0  0  0  0  0  0
    6.0010   -3.4050    0.0000 C   0  0  0  0  0  0  0  0  0  0  0  0
    6.8671   -3.9050    0.0000 C   0  0  0  0  0  0  0  0  0  0  0  0
    6.5380    0.2850    0.0000 H   0  0  0  0  0  0  0  0  0  0  0  0
    7.4040    1.4050    0.0000 H   0  0  0  0  0  0  0  0  0  0  0  0
    4.5981    1.4050    0.0000 H   0  0  0  0  0  0  0  0  0  0  0  0
    6.8671    2.7150    0.0000 H   0  0  0  0  0  0  0  0  0  0  0  0
    5.1350    2.7150    0.0000 H   0  0  0  0  0  0  0  0  0  0  0  0
    5.4641    2.9050    0.0000 H   0  0  0  0  0  0  0  0  0  0  0  0
    5.1350   -0.2850    0.0000 H   0  0  0  0  0  0  0  0  0  0  0  0
    5.6720   -1.5950    0.0000 H   0  0  0  0  0  0  0  0  0  0  0  0
    4.8059   -2.7150    0.0000 H   0  0  0  0  0  0  0  0  0  0  0  0
    3.4030   -2.5250    0.0000 H   0  0  0  0  0  0  0  0  0  0  0  0
    3.4030   -0.2850    0.0000 H   0  0  0  0  0  0  0  0  0  0  0  0
    6.5380   -2.0950    0.0000 H   0  0  0  0  0  0  0  0  0  0  0  0
    1.9264   -0.2973    0.0000 H   0  0  0  0  0  0  0  0  0  0  0  0
    2.3249   -0.9876    0.0000 H   0  0  0  0  0  0  0  0  0  0  0  0
    8.2700    0.9050    0.0000 H   0  0  0  0  0  0  0  0  0  0  0  0
    3.7321    0.9050    0.0000 H   0  0  0  0  0  0  0  0  0  0  0  0
    7.7331    3.2150    0.0000 H   0  0  0  0  0  0  0  0  0  0  0  0
    4.2690    3.2150    0.0000 H   0  0  0  0  0  0  0  0  0  0  0  0
    6.5380    3.9050    0.0000 H   0  0  0  0  0  0  0  0  0  0  0  0
    3.7321   -3.7150    0.0000 H   0  0  0  0  0  0  0  0  0  0  0  0
    2.0000   -2.0950    0.0000 H   0  0  0  0  0  0  0  0  0  0  0  0
    2.0000    0.9050    0.0000 H   0  0  0  0  0  0  0  0  0  0  0  0
    6.5571   -4.4419    0.0000 H   0  0  0  0  0  0  0  0  0  0  0  0
    7.4040   -4.2150    0.0000 H   0  0  0  0  0  0  0  0  0  0  0  0
    7.1771   -3.3681    0.0000 H   0  0  0  0  0  0  0  0  0  0  0  0
  1 13  1  0  0  0  0
  1 19  1  0  0  0  0
  2 19  1  0  0  0  0
  2 23  1  0  0  0  0
  3 14  1  0  0  0  0
  3 41  1  0  0  0  0
  4 15  1  0  0  0  0
  4 42  1  0  0  0  0
  5 16  1  0  0  0  0
  5 43  1  0  0  0  0
  6 17  1  0  0  0  0
  6 44  1  0  0  0  0
  7 18  1  0  0  0  0
  7 45  1  0  0  0  0
  8 21  1  0  0  0  0
  8 46  1  0  0  0  0
  9 22  1  0  0  0  0
  9 47  1  0  0  0  0
 10 24  1  0  0  0  0
 10 48  1  0  0  0  0
 11 25  2  0  0  0  0
 12 20  1  0  0  0  0
 12 25  1  0  0  0  0
 12 38  1  0  0  0  0
 13 14  1  0  0  0  0
 13 15  1  0  0  0  0
 13 27  1  0  0  0  0
 14 16  1  0  0  0  0
 14 28  1  0  0  0  0
 15 17  1  0  0  0  0
 15 29  1  0  0  0  0
 16 18  1  0  0  0  0
 16 30  1  0  0  0  0
 17 18  1  0  0  0  0
 17 31  1  0  0  0  0
 18 32  1  0  0  0  0
 19 20  1  0  0  0  0
 19 33  1  0  0  0  0
 20 21  1  0  0  0  0
 20 34  1  0  0  0  0
 21 22  1  0  0  0  0
 21 35  1  0  0  0  0
 22 23  1  0  0  0  0
 22 36  1  0  0  0  0
 23 24  1  0  0  0  0
 23 37  1  0  0  0  0
 24 39  1  0  0  0  0
 24 40  1  0  0  0  0
 25 26  1  0  0  0  0
 26 49  1  0  0  0  0
 26 50  1  0  0  0  0
 26 51  1  0  0  0  0
M  END
> <PUBCHEM_COMPOUND_CID>
579

> <PUBCHEM_COMPOUND_CANONICALIZED>
1

> <PUBCHEM_CACTVS_COMPLEXITY>
478

> <PUBCHEM_CACTVS_HBOND_ACCEPTOR>
11

> <PUBCHEM_CACTVS_HBOND_DONOR>
9

> <PUBCHEM_CACTVS_ROTATABLE_BOND>
4

> <PUBCHEM_CACTVS_SUBSKEYS>
AAADceByPAAAAAAAAAAAAAAAAAAAAAAAAAA0QAAAAAAAAAAAAAAAHgAQCAAACDzxgAcCCALABgAIAAEQEAAAAAAAAAAAAIAIAAATEAIAgAAnQAAHFgCXAAHwcA8AAAAAAAAAAAACAAAQAACAAAAAAAAAAA==

> <PUBCHEM_IUPAC_OPENEYE_NAME>
N-[4,5-dihydroxy-6-(hydroxymethyl)-2-(2,3,4,5,6-pentahydroxycyclohexoxy)tetrahydropyran-3-yl]acetamide

> <PUBCHEM_IUPAC_CAS_NAME>
N-[4,5-dihydroxy-6-(hydroxymethyl)-2-(2,3,4,5,6-pentahydroxycyclohexyl)oxy-3-oxanyl]acetamide

> <PUBCHEM_IUPAC_NAME_MARKUP>
<I>N</I>-[4,5-dihydroxy-6-(hydroxymethyl)-2-(2,3,4,5,6-pentahydroxycyclohexyl)oxyoxan-3-yl]acetamide

> <PUBCHEM_IUPAC_NAME>
N-[4,5-dihydroxy-6-(hydroxymethyl)-2-(2,3,4,5,6-pentahydroxycyclohexyl)oxyoxan-3-yl]acetamide

> <PUBCHEM_IUPAC_SYSTEMATIC_NAME>
N-[6-(hydroxymethyl)-4,5-bis(oxidanyl)-2-[2,3,4,5,6-pentakis(oxidanyl)cyclohexyl]oxy-oxan-3-yl]ethanamide

> <PUBCHEM_IUPAC_TRADITIONAL_NAME>
N-[4,5-dihydroxy-6-methylol-2-(2,3,4,5,6-pentahydroxycyclohexoxy)tetrahydropyran-3-yl]acetamide

> <PUBCHEM_IUPAC_INCHI>
InChI=1S/C14H25NO11/c1-3(17)15-5-7(19)6(18)4(2-16)25-14(5)26-13-11(23)9(21)8(20)10(22)12(13)24/h4-14,16,18-24H,2H2,1H3,(H,15,17)

> <PUBCHEM_IUPAC_INCHIKEY>
MRKTUVZZZRUSQR-UHFFFAOYSA-N

> <PUBCHEM_XLOGP3_AA>
-5.3

> <PUBCHEM_EXACT_MASS>
383.14276061

> <PUBCHEM_MOLECULAR_FORMULA>
C14H25NO11

> <PUBCHEM_MOLECULAR_WEIGHT>
383.35

> <PUBCHEM_SMILES>
CC(=O)NC1C(C(C(OC1OC2C(C(C(C(C2O)O)O)O)O)CO)O)O

> <PUBCHEM_CONNECTIVITY_SMILES>
CC(=O)NC1C(C(C(OC1OC2C(C(C(C(C2O)O)O)O)O)CO)O)O

> <PUBCHEM_CACTVS_TPSA>
209

> <PUBCHEM_MONOISOTOPIC_WEIGHT>
383.14276061

> <PUBCHEM_TOTAL_CHARGE>
0

> <PUBCHEM_HEAVY_ATOM_COUNT>
26

> <PUBCHEM_ATOM_DEF_STEREO_COUNT>
0

> <PUBCHEM_ATOM_UDEF_STEREO_COUNT>
9

> <PUBCHEM_BOND_DEF_STEREO_COUNT>
0

> <PUBCHEM_BOND_UDEF_STEREO_COUNT>
0

> <PUBCHEM_ISOTOPIC_ATOM_COUNT>
0

> <PUBCHEM_COMPONENT_COUNT>
1

> <PUBCHEM_CACTVS_TAUTO_COUNT>
-1

> <PUBCHEM_COORDINATE_TYPE>
1
5
255

> <PUBCHEM_BONDANNOTATIONS>
19  1  3
20  12  3
23  24  3
14  3  3
15  4  3
16  5  3
17  6  3
21  8  3
22  9  3

$$$$
