85
  -OEChem-08152602203D

 27 26  0     1  0  0  0  0  0999 V2000
    0.2968    0.8260   -1.0108 O   0  0  0  0  0  0  0  0  0  0  0  0
    3.7970   -0.6449   -0.4058 O   0  0  0  0  0  0  0  0  0  0  0  0
    2.7768    1.0778    0.6708 O   0  0  0  0  0  0  0  0  0  0  0  0
   -2.2381   -0.0743    0.0622 N   0  3  0  0  0  0  0  0  0  0  0  0
   -1.0166   -0.9185    0.0126 C   0  0  0  0  0  0  0  0  0  0  0  0
    0.2231   -0.0361    0.1255 C   0  0  1  0  0  0  0  0  0  0  0  0
   -2.2317    0.9581   -1.0730 C   0  0  0  0  0  0  0  0  0  0  0  0
   -3.4999   -0.9355   -0.0814 C   0  0  0  0  0  0  0  0  0  0  0  0
   -2.3234    0.6810    1.3951 C   0  0  0  0  0  0  0  0  0  0  0  0
    1.4869   -0.8954    0.1348 C   0  0  0  0  0  0  0  0  0  0  0  0
    2.7291   -0.0381    0.1699 C   0  0  0  0  0  0  0  0  0  0  0  0
   -1.0673   -1.6425    0.8344 H   0  0  0  0  0  0  0  0  0  0  0  0
   -1.0307   -1.4613   -0.9406 H   0  0  0  0  0  0  0  0  0  0  0  0
    0.2192    0.5801    1.0285 H   0  0  0  0  0  0  0  0  0  0  0  0
   -1.6462    1.8371   -0.7934 H   0  0  0  0  0  0  0  0  0  0  0  0
   -1.9062    0.4765   -1.9998 H   0  0  0  0  0  0  0  0  0  0  0  0
   -3.2633    1.3042   -1.2066 H   0  0  0  0  0  0  0  0  0  0  0  0
   -3.5069   -1.6655    0.7335 H   0  0  0  0  0  0  0  0  0  0  0  0
   -4.3799   -0.2883   -0.0226 H   0  0  0  0  0  0  0  0  0  0  0  0
   -3.4576   -1.4408   -1.0506 H   0  0  0  0  0  0  0  0  0  0  0  0
   -2.1839   -0.0367    2.2086 H   0  0  0  0  0  0  0  0  0  0  0  0
   -1.5740    1.4746    1.4308 H   0  0  0  0  0  0  0  0  0  0  0  0
   -3.3169    1.1361    1.4623 H   0  0  0  0  0  0  0  0  0  0  0  0
    1.5251   -1.4941   -0.7836 H   0  0  0  0  0  0  0  0  0  0  0  0
    1.5045   -1.5677    0.9985 H   0  0  0  0  0  0  0  0  0  0  0  0
    0.9762    1.4981   -0.8332 H   0  0  0  0  0  0  0  0  0  0  0  0
    4.5996   -0.0818   -0.3730 H   0  0  0  0  0  0  0  0  0  0  0  0
  1  6  1  0  0  0  0
  1 26  1  0  0  0  0
  2 11  1  0  0  0  0
  2 27  1  0  0  0  0
  3 11  2  0  0  0  0
  4  5  1  0  0  0  0
  4  7  1  0  0  0  0
  4  8  1  0  0  0  0
  4  9  1  0  0  0  0
  5  6  1  0  0  0  0
  5 12  1  0  0  0  0
  5 13  1  0  0  0  0
  6 10  1  0  0  0  0
  6 14  1  0  0  0  0
  7 15  1  0  0  0  0
  7 16  1  0  0  0  0
  7 17  1  0  0  0  0
  8 18  1  0  0  0  0
  8 19  1  0  0  0  0
  8 20  1  0  0  0  0
  9 21  1  0  0  0  0
  9 22  1  0  0  0  0
  9 23  1  0  0  0  0
 10 11  1  0  0  0  0
 10 24  1  0  0  0  0
 10 25  1  0  0  0  0
M  CHG  1   4   1
M  END
> <PUBCHEM_COMPOUND_CID>
85

> <PUBCHEM_CONFORMER_RMSD>
0.6

> <PUBCHEM_CONFORMER_DIVERSEORDER>
1
9
11
2
3
10
6
7
5
8
4

> <PUBCHEM_MMFF94_PARTIAL_CHARGES>
13
1 -0.68
10 0.06
11 0.66
2 -0.65
26 0.4
27 0.5
3 -0.57
4 -1.01
5 0.5
6 0.28
7 0.5
8 0.5
9 0.5

> <PUBCHEM_EFFECTIVE_ROTOR_COUNT>
4

> <PUBCHEM_PHARMACOPHORE_FEATURES>
6
1 1 acceptor
1 1 donor
1 2 acceptor
1 3 acceptor
1 4 cation
3 2 3 11 anion

> <PUBCHEM_HEAVY_ATOM_COUNT>
11

> <PUBCHEM_ATOM_DEF_STEREO_COUNT>
0

> <PUBCHEM_ATOM_UDEF_STEREO_COUNT>
1

> <PUBCHEM_BOND_DEF_STEREO_COUNT>
0

> <PUBCHEM_BOND_UDEF_STEREO_COUNT>
0

> <PUBCHEM_ISOTOPIC_ATOM_COUNT>
0

> <PUBCHEM_COMPONENT_COUNT>
1

> <PUBCHEM_CACTVS_TAUTO_COUNT>
1

> <PUBCHEM_CONFORMER_ID>
0000005500000001

> <PUBCHEM_MMFF94_ENERGY>
35.1887

> <PUBCHEM_FEATURE_SELFOVERLAP>
30.505

> <PUBCHEM_SHAPE_FINGERPRINT>
10219947 1 18113903775162306822
10857977 72 17458345251357028056
11062470 55 13045941308875190622
12162725 195 17704356567272396600
12932764 1 18261108552194230162
14325111 11 18201720660644587098
14390081 3 18335975411188806024
15310529 11 16702307827915509455
190213 19 17846776299902094618
20201158 50 16515684442040933763
20711983 171 17132122320428389032
23402539 116 17060613383204235701
29004967 10 17385729075400082026
3248919 1 17774996869415901742
369184 2 18272931622365909795
5084963 1 18335702771244640395

> <PUBCHEM_SHAPE_MULTIPOLES>
203.79
5.92
1.14
1.02
2.36
0.02
0.12
-0.54
0.13
-0.22
-0.06
-0.53
0.32
0.17

> <PUBCHEM_SHAPE_SELFOVERLAP>
380.427

> <PUBCHEM_SHAPE_VOLUME>
129.2

> <PUBCHEM_COORDINATE_TYPE>
2
5
10

$$$$
