555
  -OEChem-08152602563D

 24 24  0     1  0  0  0  0  0999 V2000
   -2.3971   -0.7140   -0.6892 O   0  0  0  0  0  0  0  0  0  0  0  0
   -2.0763    0.9406    0.8456 O   0  0  0  0  0  0  0  0  0  0  0  0
    0.7649   -0.7181    0.0971 N   0  3  0  0  0  0  0  0  0  0  0  0
   -0.2384    0.2377   -0.5817 C   0  0  2  0  0  0  0  0  0  0  0  0
    2.1134   -0.0663   -0.2071 C   0  0  0  0  0  0  0  0  0  0  0  0
    0.3999    1.6216   -0.4711 C   0  0  0  0  0  0  0  0  0  0  0  0
    1.8475    1.4158   -0.0458 C   0  0  0  0  0  0  0  0  0  0  0  0
    0.5466   -0.8255    1.6048 C   0  0  0  0  0  0  0  0  0  0  0  0
    0.6933   -2.1108   -0.5071 C   0  0  0  0  0  0  0  0  0  0  0  0
   -1.6538    0.2191   -0.0457 C   0  0  0  0  0  0  0  0  0  0  0  0
   -0.2620   -0.0323   -1.6465 H   0  0  0  0  0  0  0  0  0  0  0  0
    2.3741   -0.3065   -1.2443 H   0  0  0  0  0  0  0  0  0  0  0  0
    2.8750   -0.4604    0.4724 H   0  0  0  0  0  0  0  0  0  0  0  0
   -0.1054    2.2885    0.2355 H   0  0  0  0  0  0  0  0  0  0  0  0
    0.3607    2.1228   -1.4459 H   0  0  0  0  0  0  0  0  0  0  0  0
    2.5412    2.0202   -0.6384 H   0  0  0  0  0  0  0  0  0  0  0  0
    1.9755    1.7139    1.0013 H   0  0  0  0  0  0  0  0  0  0  0  0
    1.3712   -1.4066    2.0285 H   0  0  0  0  0  0  0  0  0  0  0  0
    0.5242    0.1767    2.0401 H   0  0  0  0  0  0  0  0  0  0  0  0
   -0.4018   -1.3402    1.7839 H   0  0  0  0  0  0  0  0  0  0  0  0
    0.8513   -2.0368   -1.5869 H   0  0  0  0  0  0  0  0  0  0  0  0
    1.4780   -2.7215   -0.0510 H   0  0  0  0  0  0  0  0  0  0  0  0
   -0.2934   -2.5313   -0.2946 H   0  0  0  0  0  0  0  0  0  0  0  0
   -3.3184   -0.7435   -0.3537 H   0  0  0  0  0  0  0  0  0  0  0  0
  1 10  1  0  0  0  0
  1 24  1  0  0  0  0
  2 10  2  0  0  0  0
  3  4  1  0  0  0  0
  3  5  1  0  0  0  0
  3  8  1  0  0  0  0
  3  9  1  0  0  0  0
  4  6  1  0  0  0  0
  4 10  1  0  0  0  0
  4 11  1  0  0  0  0
  5  7  1  0  0  0  0
  5 12  1  0  0  0  0
  5 13  1  0  0  0  0
  6  7  1  0  0  0  0
  6 14  1  0  0  0  0
  6 15  1  0  0  0  0
  7 16  1  0  0  0  0
  7 17  1  0  0  0  0
  8 18  1  0  0  0  0
  8 19  1  0  0  0  0
  8 20  1  0  0  0  0
  9 21  1  0  0  0  0
  9 22  1  0  0  0  0
  9 23  1  0  0  0  0
M  CHG  1   3   1
M  END
> <PUBCHEM_COMPOUND_CID>
555

> <PUBCHEM_CONFORMER_RMSD>
0.4

> <PUBCHEM_CONFORMER_DIVERSEORDER>
1
6
3
8
2
4
7
5

> <PUBCHEM_MMFF94_PARTIAL_CHARGES>
9
1 -0.65
10 0.66
2 -0.57
24 0.5
3 -1.01
4 0.56
5 0.5
8 0.5
9 0.5

> <PUBCHEM_EFFECTIVE_ROTOR_COUNT>
2

> <PUBCHEM_PHARMACOPHORE_FEATURES>
5
1 1 acceptor
1 2 acceptor
1 3 cation
3 1 2 10 anion
5 3 4 5 6 7 rings

> <PUBCHEM_HEAVY_ATOM_COUNT>
10

> <PUBCHEM_ATOM_DEF_STEREO_COUNT>
0

> <PUBCHEM_ATOM_UDEF_STEREO_COUNT>
1

> <PUBCHEM_BOND_DEF_STEREO_COUNT>
0

> <PUBCHEM_BOND_UDEF_STEREO_COUNT>
0

> <PUBCHEM_ISOTOPIC_ATOM_COUNT>
0

> <PUBCHEM_COMPONENT_COUNT>
1

> <PUBCHEM_CACTVS_TAUTO_COUNT>
1

> <PUBCHEM_CONFORMER_ID>
0000022B00000001

> <PUBCHEM_MMFF94_ENERGY>
29.2566

> <PUBCHEM_FEATURE_SELFOVERLAP>
25.427

> <PUBCHEM_SHAPE_FINGERPRINT>
12423570 1 18124312701407998970
137420 1 14719781705848658894
16945 1 18335424560358711180
18185500 45 18341611482181218141
20653085 51 17487084342382597904
21040471 1 18194123138571211324
21922407 69 18201432571613361001
23552423 10 18342460300899934327
29004967 10 18262248698391432096
5084963 1 17896317089614213364
528886 8 18341896259982452670
68250623 7 17474980639310892044

> <PUBCHEM_SHAPE_MULTIPOLES>
189.08
2.67
1.82
1.05
1.04
0.34
0.39
-0.45
-0.11
-0.57
-0.22
0.06
0.26
-0.23

> <PUBCHEM_SHAPE_SELFOVERLAP>
369.447

> <PUBCHEM_SHAPE_VOLUME>
116.2

> <PUBCHEM_COORDINATE_TYPE>
2
5
10

$$$$
