658
  -OEChem-08152603042D

121122  0     1  0  0  0  0  0999 V2000
    8.0622   -3.8100    0.0000 O   0  0  0  0  0  0  0  0  0  0  0  0
    6.3301   -1.8100    0.0000 O   0  0  0  0  0  0  0  0  0  0  0  0
    8.0622   -1.8100    0.0000 O   0  0  0  0  0  0  0  0  0  0  0  0
    7.1962   -5.3100    0.0000 O   0  0  0  0  0  0  0  0  0  0  0  0
    6.3301   -4.8100    0.0000 O   0  0  0  0  0  0  0  0  0  0  0  0
    4.5981   -3.8100    0.0000 O   0  0  0  0  0  0  0  0  0  0  0  0
    9.7942   -4.8100    0.0000 O   0  0  0  0  0  0  0  0  0  0  0  0
    9.7942   -6.8100    0.0000 O   0  0  0  0  0  0  0  0  0  0  0  0
    8.0622   -7.8100    0.0000 O   0  0  0  0  0  0  0  0  0  0  0  0
    4.5981   -0.8100    0.0000 O   0  0  0  0  0  0  0  0  0  0  0  0
    6.3301   -7.8100    0.0000 O   0  0  0  0  0  0  0  0  0  0  0  0
    2.8660   -0.8100    0.0000 O   0  0  0  0  0  0  0  0  0  0  0  0
    4.5981   -7.8100    0.0000 O   0  0  0  0  0  0  0  0  0  0  0  0
    2.0000    8.6900    0.0000 O   0  0  0  0  0  0  0  0  0  0  0  0
    3.7320    8.6900    0.0000 O   0  0  0  0  0  0  0  0  0  0  0  0
    7.1962   -3.3100    0.0000 C   0  0  3  0  0  0  0  0  0  0  0  0
    6.3301   -3.8100    0.0000 C   0  0  3  0  0  0  0  0  0  0  0  0
    7.1962   -2.3100    0.0000 C   0  0  3  0  0  0  0  0  0  0  0  0
    5.4641   -3.3100    0.0000 C   0  0  3  0  0  0  0  0  0  0  0  0
    5.4641   -2.3100    0.0000 C   0  0  3  0  0  0  0  0  0  0  0  0
    8.0622   -4.8100    0.0000 C   0  0  3  0  0  0  0  0  0  0  0  0
    8.9282   -5.3100    0.0000 C   0  0  3  0  0  0  0  0  0  0  0  0
    8.9282   -6.3100    0.0000 C   0  0  3  0  0  0  0  0  0  0  0  0
    8.0622   -6.8100    0.0000 C   0  0  3  0  0  0  0  0  0  0  0  0
    8.0622   -0.8100    0.0000 C   0  0  3  0  0  0  0  0  0  0  0  0
    7.1962   -6.3100    0.0000 C   0  0  3  0  0  0  0  0  0  0  0  0
    4.5981   -1.8100    0.0000 C   0  0  0  0  0  0  0  0  0  0  0  0
    7.1962   -0.3100    0.0000 C   0  0  0  0  0  0  0  0  0  0  0  0
    8.9282   -0.3100    0.0000 C   0  0  0  0  0  0  0  0  0  0  0  0
    7.1962    0.6900    0.0000 C   0  0  0  0  0  0  0  0  0  0  0  0
    6.3301   -6.8100    0.0000 C   0  0  0  0  0  0  0  0  0  0  0  0
    8.9282    0.6900    0.0000 C   0  0  0  0  0  0  0  0  0  0  0  0
    6.3301    1.1900    0.0000 C   0  0  0  0  0  0  0  0  0  0  0  0
    9.7942    1.1900    0.0000 C   0  0  0  0  0  0  0  0  0  0  0  0
    6.3301    2.1900    0.0000 C   0  0  0  0  0  0  0  0  0  0  0  0
    9.7942    2.1900    0.0000 C   0  0  0  0  0  0  0  0  0  0  0  0
    5.4641    2.6900    0.0000 C   0  0  0  0  0  0  0  0  0  0  0  0
   10.6603    2.6900    0.0000 C   0  0  0  0  0  0  0  0  0  0  0  0
    5.4641    3.6900    0.0000 C   0  0  0  0  0  0  0  0  0  0  0  0
   10.6603    3.6900    0.0000 C   0  0  0  0  0  0  0  0  0  0  0  0
    3.7320   -0.3100    0.0000 C   0  0  0  0  0  0  0  0  0  0  0  0
    4.5981    4.1900    0.0000 C   0  0  0  0  0  0  0  0  0  0  0  0
   11.5263    4.1900    0.0000 C   0  0  0  0  0  0  0  0  0  0  0  0
    4.5981    5.1900    0.0000 C   0  0  0  0  0  0  0  0  0  0  0  0
    5.4641   -8.3100    0.0000 C   0  0  0  0  0  0  0  0  0  0  0  0
    3.7320    5.6900    0.0000 C   0  0  0  0  0  0  0  0  0  0  0  0
    3.7320    0.6900    0.0000 C   0  0  0  0  0  0  0  0  0  0  0  0
   11.5263    5.1900    0.0000 C   0  0  0  0  0  0  0  0  0  0  0  0
    5.4641   -9.3100    0.0000 C   0  0  0  0  0  0  0  0  0  0  0  0
    3.7320    6.6900    0.0000 C   0  0  0  0  0  0  0  0  0  0  0  0
   12.3923    5.6900    0.0000 C   0  0  0  0  0  0  0  0  0  0  0  0
    2.8660    7.1900    0.0000 C   0  0  0  0  0  0  0  0  0  0  0  0
    2.8660    8.1900    0.0000 C   0  0  0  0  0  0  0  0  0  0  0  0
    7.1962   -3.9300    0.0000 H   0  0  0  0  0  0  0  0  0  0  0  0
    5.7932   -4.1200    0.0000 H   0  0  0  0  0  0  0  0  0  0  0  0
    7.7331   -2.6200    0.0000 H   0  0  0  0  0  0  0  0  0  0  0  0
    5.4641   -3.9300    0.0000 H   0  0  0  0  0  0  0  0  0  0  0  0
    5.4641   -1.6900    0.0000 H   0  0  0  0  0  0  0  0  0  0  0  0
    7.5252   -4.5000    0.0000 H   0  0  0  0  0  0  0  0  0  0  0  0
    9.4651   -5.6200    0.0000 H   0  0  0  0  0  0  0  0  0  0  0  0
    8.9282   -6.9300    0.0000 H   0  0  0  0  0  0  0  0  0  0  0  0
    7.5252   -7.1200    0.0000 H   0  0  0  0  0  0  0  0  0  0  0  0
    7.5252   -1.1200    0.0000 H   0  0  0  0  0  0  0  0  0  0  0  0
    6.6592   -6.0000    0.0000 H   0  0  0  0  0  0  0  0  0  0  0  0
    3.9875   -1.7023    0.0000 H   0  0  0  0  0  0  0  0  0  0  0  0
    4.3860   -2.3926    0.0000 H   0  0  0  0  0  0  0  0  0  0  0  0
    6.5856   -0.2023    0.0000 H   0  0  0  0  0  0  0  0  0  0  0  0
    6.9841   -0.8926    0.0000 H   0  0  0  0  0  0  0  0  0  0  0  0
    9.1403   -0.8926    0.0000 H   0  0  0  0  0  0  0  0  0  0  0  0
    9.5388   -0.2023    0.0000 H   0  0  0  0  0  0  0  0  0  0  0  0
    7.8067    0.5823    0.0000 H   0  0  0  0  0  0  0  0  0  0  0  0
    7.4082    1.2726    0.0000 H   0  0  0  0  0  0  0  0  0  0  0  0
    6.1181   -6.2274    0.0000 H   0  0  0  0  0  0  0  0  0  0  0  0
    5.7196   -6.9177    0.0000 H   0  0  0  0  0  0  0  0  0  0  0  0
    5.7932   -5.1200    0.0000 H   0  0  0  0  0  0  0  0  0  0  0  0
    8.7162    1.2726    0.0000 H   0  0  0  0  0  0  0  0  0  0  0  0
    8.3176    0.5823    0.0000 H   0  0  0  0  0  0  0  0  0  0  0  0
    4.0611   -3.5000    0.0000 H   0  0  0  0  0  0  0  0  0  0  0  0
    5.7196    1.2977    0.0000 H   0  0  0  0  0  0  0  0  0  0  0  0
    6.1181    0.6074    0.0000 H   0  0  0  0  0  0  0  0  0  0  0  0
   10.0063    0.6074    0.0000 H   0  0  0  0  0  0  0  0  0  0  0  0
   10.4048    1.2977    0.0000 H   0  0  0  0  0  0  0  0  0  0  0  0
   10.3312   -5.1200    0.0000 H   0  0  0  0  0  0  0  0  0  0  0  0
    9.7942   -7.4300    0.0000 H   0  0  0  0  0  0  0  0  0  0  0  0
    8.5991   -8.1200    0.0000 H   0  0  0  0  0  0  0  0  0  0  0  0
    6.9407    2.0823    0.0000 H   0  0  0  0  0  0  0  0  0  0  0  0
    6.5422    2.7726    0.0000 H   0  0  0  0  0  0  0  0  0  0  0  0
    9.5822    2.7726    0.0000 H   0  0  0  0  0  0  0  0  0  0  0  0
    9.1836    2.0823    0.0000 H   0  0  0  0  0  0  0  0  0  0  0  0
    4.8535    2.7977    0.0000 H   0  0  0  0  0  0  0  0  0  0  0  0
    5.2520    2.1074    0.0000 H   0  0  0  0  0  0  0  0  0  0  0  0
   10.8723    2.1074    0.0000 H   0  0  0  0  0  0  0  0  0  0  0  0
   11.2708    2.7977    0.0000 H   0  0  0  0  0  0  0  0  0  0  0  0
    6.0747    3.5823    0.0000 H   0  0  0  0  0  0  0  0  0  0  0  0
    5.6762    4.2726    0.0000 H   0  0  0  0  0  0  0  0  0  0  0  0
   10.4482    4.2726    0.0000 H   0  0  0  0  0  0  0  0  0  0  0  0
   10.0497    3.5823    0.0000 H   0  0  0  0  0  0  0  0  0  0  0  0
    3.9875    4.2977    0.0000 H   0  0  0  0  0  0  0  0  0  0  0  0
    4.3860    3.6074    0.0000 H   0  0  0  0  0  0  0  0  0  0  0  0
   11.7383    3.6074    0.0000 H   0  0  0  0  0  0  0  0  0  0  0  0
   12.1369    4.2977    0.0000 H   0  0  0  0  0  0  0  0  0  0  0  0
    5.2087    5.0823    0.0000 H   0  0  0  0  0  0  0  0  0  0  0  0
    4.8101    5.7726    0.0000 H   0  0  0  0  0  0  0  0  0  0  0  0
    3.1215    5.7977    0.0000 H   0  0  0  0  0  0  0  0  0  0  0  0
    3.5200    5.1074    0.0000 H   0  0  0  0  0  0  0  0  0  0  0  0
    4.3520    0.6900    0.0000 H   0  0  0  0  0  0  0  0  0  0  0  0
    3.7320    1.3100    0.0000 H   0  0  0  0  0  0  0  0  0  0  0  0
    3.1120    0.6900    0.0000 H   0  0  0  0  0  0  0  0  0  0  0  0
   11.3142    5.7726    0.0000 H   0  0  0  0  0  0  0  0  0  0  0  0
   10.9157    5.0823    0.0000 H   0  0  0  0  0  0  0  0  0  0  0  0
    4.8441   -9.3100    0.0000 H   0  0  0  0  0  0  0  0  0  0  0  0
    5.4641   -9.9300    0.0000 H   0  0  0  0  0  0  0  0  0  0  0  0
    6.0841   -9.3100    0.0000 H   0  0  0  0  0  0  0  0  0  0  0  0
    4.3426    6.5823    0.0000 H   0  0  0  0  0  0  0  0  0  0  0  0
    3.9441    7.2726    0.0000 H   0  0  0  0  0  0  0  0  0  0  0  0
   12.7023    5.1531    0.0000 H   0  0  0  0  0  0  0  0  0  0  0  0
   12.9292    6.0000    0.0000 H   0  0  0  0  0  0  0  0  0  0  0  0
   12.0823    6.2269    0.0000 H   0  0  0  0  0  0  0  0  0  0  0  0
    2.2554    7.2977    0.0000 H   0  0  0  0  0  0  0  0  0  0  0  0
    2.6540    6.6074    0.0000 H   0  0  0  0  0  0  0  0  0  0  0  0
    2.0000    9.3100    0.0000 H   0  0  0  0  0  0  0  0  0  0  0  0
  1 16  1  0  0  0  0
  1 21  1  0  0  0  0
  2 18  1  0  0  0  0
  2 20  1  0  0  0  0
  3 18  1  0  0  0  0
  3 25  1  0  0  0  0
  4 21  1  0  0  0  0
  4 26  1  0  0  0  0
  5 17  1  0  0  0  0
  5 75  1  0  0  0  0
  6 19  1  0  0  0  0
  6 78  1  0  0  0  0
  7 22  1  0  0  0  0
  7 83  1  0  0  0  0
  8 23  1  0  0  0  0
  8 84  1  0  0  0  0
  9 24  1  0  0  0  0
  9 85  1  0  0  0  0
 10 27  1  0  0  0  0
 10 41  1  0  0  0  0
 11 31  1  0  0  0  0
 11 45  1  0  0  0  0
 12 41  2  0  0  0  0
 13 45  2  0  0  0  0
 14 53  1  0  0  0  0
 14121  1  0  0  0  0
 15 53  2  0  0  0  0
 16 17  1  0  0  0  0
 16 18  1  0  0  0  0
 16 54  1  0  0  0  0
 17 19  1  0  0  0  0
 17 55  1  0  0  0  0
 18 56  1  0  0  0  0
 19 20  1  0  0  0  0
 19 57  1  0  0  0  0
 20 27  1  0  0  0  0
 20 58  1  0  0  0  0
 21 22  1  0  0  0  0
 21 59  1  0  0  0  0
 22 23  1  0  0  0  0
 22 60  1  0  0  0  0
 23 24  1  0  0  0  0
 23 61  1  0  0  0  0
 24 26  1  0  0  0  0
 24 62  1  0  0  0  0
 25 28  1  0  0  0  0
 25 29  1  0  0  0  0
 25 63  1  0  0  0  0
 26 31  1  0  0  0  0
 26 64  1  0  0  0  0
 27 65  1  0  0  0  0
 27 66  1  0  0  0  0
 28 30  1  0  0  0  0
 28 67  1  0  0  0  0
 28 68  1  0  0  0  0
 29 32  1  0  0  0  0
 29 69  1  0  0  0  0
 29 70  1  0  0  0  0
 30 33  1  0  0  0  0
 30 71  1  0  0  0  0
 30 72  1  0  0  0  0
 31 73  1  0  0  0  0
 31 74  1  0  0  0  0
 32 34  1  0  0  0  0
 32 76  1  0  0  0  0
 32 77  1  0  0  0  0
 33 35  1  0  0  0  0
 33 79  1  0  0  0  0
 33 80  1  0  0  0  0
 34 36  1  0  0  0  0
 34 81  1  0  0  0  0
 34 82  1  0  0  0  0
 35 37  1  0  0  0  0
 35 86  1  0  0  0  0
 35 87  1  0  0  0  0
 36 38  1  0  0  0  0
 36 88  1  0  0  0  0
 36 89  1  0  0  0  0
 37 39  1  0  0  0  0
 37 90  1  0  0  0  0
 37 91  1  0  0  0  0
 38 40  1  0  0  0  0
 38 92  1  0  0  0  0
 38 93  1  0  0  0  0
 39 42  1  0  0  0  0
 39 94  1  0  0  0  0
 39 95  1  0  0  0  0
 40 43  1  0  0  0  0
 40 96  1  0  0  0  0
 40 97  1  0  0  0  0
 41 47  1  0  0  0  0
 42 44  1  0  0  0  0
 42 98  1  0  0  0  0
 42 99  1  0  0  0  0
 43 48  1  0  0  0  0
 43100  1  0  0  0  0
 43101  1  0  0  0  0
 44 46  1  0  0  0  0
 44102  1  0  0  0  0
 44103  1  0  0  0  0
 45 49  1  0  0  0  0
 46 50  1  0  0  0  0
 46104  1  0  0  0  0
 46105  1  0  0  0  0
 47106  1  0  0  0  0
 47107  1  0  0  0  0
 47108  1  0  0  0  0
 48 51  1  0  0  0  0
 48109  1  0  0  0  0
 48110  1  0  0  0  0
 49111  1  0  0  0  0
 49112  1  0  0  0  0
 49113  1  0  0  0  0
 50 52  1  0  0  0  0
 50114  1  0  0  0  0
 50115  1  0  0  0  0
 51116  1  0  0  0  0
 51117  1  0  0  0  0
 51118  1  0  0  0  0
 52 53  1  0  0  0  0
 52119  1  0  0  0  0
 52120  1  0  0  0  0
M  END
> <PUBCHEM_COMPOUND_CID>
658

> <PUBCHEM_COMPOUND_CANONICALIZED>
1

> <PUBCHEM_CACTVS_COMPLEXITY>
1010

> <PUBCHEM_CACTVS_HBOND_ACCEPTOR>
15

> <PUBCHEM_CACTVS_HBOND_DONOR>
6

> <PUBCHEM_CACTVS_ROTATABLE_BOND>
30

> <PUBCHEM_CACTVS_SUBSKEYS>
AAADcfB8PAAAAAAAAAAAAAAAAAAAAAAAAAAkSAAAAAAAAAAAAAAAGgAACAAACBSwgAMCCAAABgAIAACQCAAAAAAAAAAAAAEAAAAREBIAAAAiQAAFAAAHAAHI6KyAAAAAAAAAAAAAAAAAAAAAAAAAAAAAAA==

> <PUBCHEM_IUPAC_OPENEYE_NAME>
13-[6-(acetoxymethyl)-3-[6-(acetoxymethyl)-3,4,5-trihydroxy-tetrahydropyran-2-yl]oxy-4,5-dihydroxy-tetrahydropyran-2-yl]oxydocosanoic acid

> <PUBCHEM_IUPAC_CAS_NAME>
13-[[6-(acetyloxymethyl)-3-[[6-(acetyloxymethyl)-3,4,5-trihydroxy-2-oxanyl]oxy]-4,5-dihydroxy-2-oxanyl]oxy]docosanoic acid

> <PUBCHEM_IUPAC_NAME_MARKUP>
13-[6-(acetyloxymethyl)-3-[6-(acetyloxymethyl)-3,4,5-trihydroxyoxan-2-yl]oxy-4,5-dihydroxyoxan-2-yl]oxydocosanoic acid

> <PUBCHEM_IUPAC_NAME>
13-[6-(acetyloxymethyl)-3-[6-(acetyloxymethyl)-3,4,5-trihydroxyoxan-2-yl]oxy-4,5-dihydroxyoxan-2-yl]oxydocosanoic acid

> <PUBCHEM_IUPAC_SYSTEMATIC_NAME>
13-[6-(acetyloxymethyl)-3-[6-(acetyloxymethyl)-3,4,5-tris(oxidanyl)oxan-2-yl]oxy-4,5-bis(oxidanyl)oxan-2-yl]oxydocosanoic acid

> <PUBCHEM_IUPAC_TRADITIONAL_NAME>
13-[6-(acetoxymethyl)-3-[6-(acetoxymethyl)-3,4,5-trihydroxy-tetrahydropyran-2-yl]oxy-4,5-dihydroxy-tetrahydropyran-2-yl]oxybehenic acid

> <PUBCHEM_IUPAC_INCHI>
InChI=1S/C38H68O15/c1-4-5-6-7-11-14-17-20-27(21-18-15-12-9-8-10-13-16-19-22-30(41)42)50-38-36(34(46)32(44)29(52-38)24-49-26(3)40)53-37-35(47)33(45)31(43)28(51-37)23-48-25(2)39/h27-29,31-38,43-47H,4-24H2,1-3H3,(H,41,42)

> <PUBCHEM_IUPAC_INCHIKEY>
LGIFCELMJBBHMO-UHFFFAOYSA-N

> <PUBCHEM_XLOGP3_AA>
5.3

> <PUBCHEM_EXACT_MASS>
764.45582146

> <PUBCHEM_MOLECULAR_FORMULA>
C38H68O15

> <PUBCHEM_MOLECULAR_WEIGHT>
764.9

> <PUBCHEM_SMILES>
CCCCCCCCCC(CCCCCCCCCCCC(=O)O)OC1C(C(C(C(O1)COC(=O)C)O)O)OC2C(C(C(C(O2)COC(=O)C)O)O)O

> <PUBCHEM_CONNECTIVITY_SMILES>
CCCCCCCCCC(CCCCCCCCCCCC(=O)O)OC1C(C(C(C(O1)COC(=O)C)O)O)OC2C(C(C(C(O2)COC(=O)C)O)O)O

> <PUBCHEM_CACTVS_TPSA>
228

> <PUBCHEM_MONOISOTOPIC_WEIGHT>
764.45582146

> <PUBCHEM_TOTAL_CHARGE>
0

> <PUBCHEM_HEAVY_ATOM_COUNT>
53

> <PUBCHEM_ATOM_DEF_STEREO_COUNT>
0

> <PUBCHEM_ATOM_UDEF_STEREO_COUNT>
11

> <PUBCHEM_BOND_DEF_STEREO_COUNT>
0

> <PUBCHEM_BOND_UDEF_STEREO_COUNT>
0

> <PUBCHEM_ISOTOPIC_ATOM_COUNT>
0

> <PUBCHEM_COMPONENT_COUNT>
1

> <PUBCHEM_CACTVS_TAUTO_COUNT>
-1

> <PUBCHEM_COORDINATE_TYPE>
1
5
255

> <PUBCHEM_BONDANNOTATIONS>
16  1  3
21  1  3
20  27  3
25  29  3
26  31  3
18  3  3
17  5  3
19  6  3
22  7  3
23  8  3
24  9  3

$$$$
