384
  -OEChem-08152602423D

 28 27  0     1  0  0  0  0  0999 V2000
    0.2608   -1.6347    1.4334 O   0  0  0  0  0  0  0  0  0  0  0  0
    0.9502   -2.2532   -0.6413 O   0  0  0  0  0  0  0  0  0  0  0  0
   -2.8460   -0.0896    1.4234 O   0  0  0  0  0  0  0  0  0  0  0  0
   -1.7665    1.8210    0.8344 O   0  0  0  0  0  0  0  0  0  0  0  0
   -0.4564    0.3414   -1.1438 N   0  0  0  0  0  0  0  0  0  0  0  0
    0.5716    0.1096   -0.1305 C   0  0  2  0  0  0  0  0  0  0  0  0
    1.9317    0.6726   -0.5686 C   0  0  0  0  0  0  0  0  0  0  0  0
   -1.7569   -0.1072   -0.6707 C   0  0  2  0  0  0  0  0  0  0  0  0
    3.0406    0.5481    0.4838 C   0  0  0  0  0  0  0  0  0  0  0  0
    0.6323   -1.3784    0.1517 C   0  0  0  0  0  0  0  0  0  0  0  0
   -2.8049    0.1256   -1.7504 C   0  0  0  0  0  0  0  0  0  0  0  0
    4.3382    1.1746   -0.0048 C   0  0  0  0  0  0  0  0  0  0  0  0
   -2.0948    0.6703    0.5836 C   0  0  0  0  0  0  0  0  0  0  0  0
    0.3415    0.6300    0.8055 H   0  0  0  0  0  0  0  0  0  0  0  0
    2.2612    0.1647   -1.4852 H   0  0  0  0  0  0  0  0  0  0  0  0
    1.8099    1.7334   -0.8253 H   0  0  0  0  0  0  0  0  0  0  0  0
   -0.2094   -0.1382   -2.0091 H   0  0  0  0  0  0  0  0  0  0  0  0
   -1.7528   -1.1796   -0.4449 H   0  0  0  0  0  0  0  0  0  0  0  0
    2.7283    1.0423    1.4109 H   0  0  0  0  0  0  0  0  0  0  0  0
    3.2205   -0.5064    0.7207 H   0  0  0  0  0  0  0  0  0  0  0  0
   -2.5709   -0.4388   -2.6597 H   0  0  0  0  0  0  0  0  0  0  0  0
   -3.7943   -0.1915   -1.4022 H   0  0  0  0  0  0  0  0  0  0  0  0
   -2.8807    1.1867   -2.0154 H   0  0  0  0  0  0  0  0  0  0  0  0
    4.6920    0.6830   -0.9167 H   0  0  0  0  0  0  0  0  0  0  0  0
    5.1167    1.0764    0.7582 H   0  0  0  0  0  0  0  0  0  0  0  0
    4.2041    2.2399   -0.2178 H   0  0  0  0  0  0  0  0  0  0  0  0
    0.2845   -2.5943    1.6356 H   0  0  0  0  0  0  0  0  0  0  0  0
   -3.0820    0.3959    2.2425 H   0  0  0  0  0  0  0  0  0  0  0  0
  1 10  1  0  0  0  0
  1 27  1  0  0  0  0
  2 10  2  0  0  0  0
  3 13  1  0  0  0  0
  3 28  1  0  0  0  0
  4 13  2  0  0  0  0
  5  6  1  0  0  0  0
  5  8  1  0  0  0  0
  5 17  1  0  0  0  0
  6  7  1  0  0  0  0
  6 10  1  0  0  0  0
  6 14  1  0  0  0  0
  7  9  1  0  0  0  0
  7 15  1  0  0  0  0
  7 16  1  0  0  0  0
  8 11  1  0  0  0  0
  8 13  1  0  0  0  0
  8 18  1  0  0  0  0
  9 12  1  0  0  0  0
  9 19  1  0  0  0  0
  9 20  1  0  0  0  0
 11 21  1  0  0  0  0
 11 22  1  0  0  0  0
 11 23  1  0  0  0  0
 12 24  1  0  0  0  0
 12 25  1  0  0  0  0
 12 26  1  0  0  0  0
M  END
> <PUBCHEM_COMPOUND_CID>
384

> <PUBCHEM_CONFORMER_RMSD>
0.6

> <PUBCHEM_CONFORMER_DIVERSEORDER>
8
25
129
27
74
78
120
34
113
117
101
121
64
26
53
50
114
4
100
21
55
24
122
99
61
40
119
82
89
66
83
63
104
96
17
91
77
6
36
22
30
3
105
124
125
71
88
72
107
123
70
45
29
42
118
127
103
1
73
14
59
20
85
86
115
68
60
84
10
15
110
46
98
11
52
44
67
2
69
57
47
81
90
49
87
95
128
58
102
33
76
32
80
106
41
109
116
38
108
111
54
93
112
62
37
7
51
39
126
92
56
94
23
75
19
65
18
5
79
28
16
12
43
48
35
97
31
9
13

> <PUBCHEM_MMFF94_PARTIAL_CHARGES>
12
1 -0.65
10 0.66
13 0.66
17 0.36
2 -0.57
27 0.5
28 0.5
3 -0.65
4 -0.57
5 -0.9
6 0.33
8 0.33

> <PUBCHEM_EFFECTIVE_ROTOR_COUNT>
6

> <PUBCHEM_PHARMACOPHORE_FEATURES>
9
1 1 acceptor
1 12 hydrophobe
1 2 acceptor
1 3 acceptor
1 4 acceptor
1 5 cation
1 5 donor
3 1 2 10 anion
3 3 4 13 anion

> <PUBCHEM_HEAVY_ATOM_COUNT>
13

> <PUBCHEM_ATOM_DEF_STEREO_COUNT>
0

> <PUBCHEM_ATOM_UDEF_STEREO_COUNT>
2

> <PUBCHEM_BOND_DEF_STEREO_COUNT>
0

> <PUBCHEM_BOND_UDEF_STEREO_COUNT>
0

> <PUBCHEM_ISOTOPIC_ATOM_COUNT>
0

> <PUBCHEM_COMPONENT_COUNT>
1

> <PUBCHEM_CACTVS_TAUTO_COUNT>
1

> <PUBCHEM_CONFORMER_ID>
0000018000000008

> <PUBCHEM_MMFF94_ENERGY>
12.8139

> <PUBCHEM_FEATURE_SELFOVERLAP>
45.787

> <PUBCHEM_SHAPE_FINGERPRINT>
15219456 202 17241037704539635987
15279308 16 17386274403155676109
15309172 13 18259982695542918012
15775835 57 18187911911496932964
15852999 172 16154255118963414955
16945 1 18342179981058319196
18186145 218 18272371979838246788
20645464 45 16878221966108815109
20653085 51 16988290884010018256
21028194 46 18333730255979704116
21922407 69 18129367220938414399
228727 97 17917698137093811293
23236772 104 18201716262867127253
23402539 116 17845642784917964412
23419403 2 17473534133059705531
305870 269 18342741758844286708
5084963 1 18041837436423160812
75552 356 13190339067207844616
81228 2 17758955218390045954

> <PUBCHEM_SHAPE_MULTIPOLES>
239.08
5.46
1.65
1.36
4.26
0.79
0.01
-2.64
0.09
0.38
-0.25
-1.2
0.05
-0.17

> <PUBCHEM_SHAPE_SELFOVERLAP>
456.432

> <PUBCHEM_SHAPE_VOLUME>
146.9

> <PUBCHEM_COORDINATE_TYPE>
2
5
10

$$$$
