633
  -OEChem-08152603022D

122123  0     0  0  0  0  0  0999 V2000
   30.5788   -2.0000    0.0000 O   0  0  0  0  0  0  0  0  0  0  0  0
   30.5788    2.0000    0.0000 O   0  0  0  0  0  0  0  0  0  0  0  0
   15.8564   -0.5000    0.0000 C   0  0  0  0  0  0  0  0  0  0  0  0
   19.3205   -0.5000    0.0000 C   0  0  0  0  0  0  0  0  0  0  0  0
   18.4545   -1.0000    0.0000 C   0  0  0  0  0  0  0  0  0  0  0  0
   14.9904   -1.0000    0.0000 C   0  0  0  0  0  0  0  0  0  0  0  0
   12.3923   -0.5000    0.0000 C   0  0  0  0  0  0  0  0  0  0  0  0
   22.7846   -0.5000    0.0000 C   0  0  0  0  0  0  0  0  0  0  0  0
   16.7224   -1.0000    0.0000 C   0  0  0  0  0  0  0  0  0  0  0  0
   21.9186   -1.0000    0.0000 C   0  0  0  0  0  0  0  0  0  0  0  0
   11.5263   -1.0000    0.0000 C   0  0  0  0  0  0  0  0  0  0  0  0
   20.1865   -1.0000    0.0000 C   0  0  0  0  0  0  0  0  0  0  0  0
   13.2583   -1.0000    0.0000 C   0  0  0  0  0  0  0  0  0  0  0  0
    8.9282   -0.5000    0.0000 C   0  0  0  0  0  0  0  0  0  0  0  0
   23.6506   -1.0000    0.0000 C   0  0  0  0  0  0  0  0  0  0  0  0
   17.5885   -0.5000    0.0000 C   0  0  0  0  0  0  0  0  0  0  0  0
   14.1244   -0.5000    0.0000 C   0  0  0  0  0  0  0  0  0  0  0  0
    9.7942   -1.0000    0.0000 C   0  0  0  0  0  0  0  0  0  0  0  0
   21.0526   -0.5000    0.0000 C   0  0  0  0  0  0  0  0  0  0  0  0
   25.3827   -1.0000    0.0000 C   0  0  0  0  0  0  0  0  0  0  0  0
   26.2487   -0.5000    0.0000 C   0  0  0  0  0  0  0  0  0  0  0  0
    8.0622   -1.0000    0.0000 C   0  0  0  0  0  0  0  0  0  0  0  0
   10.6603   -0.5000    0.0000 C   0  0  0  0  0  0  0  0  0  0  0  0
   24.5167   -0.5000    0.0000 C   0  0  0  0  0  0  0  0  0  0  0  0
   27.1147   -1.0000    0.0000 C   0  0  0  0  0  0  0  0  0  0  0  0
   16.7224   -2.0000    0.0000 C   0  0  0  0  0  0  0  0  0  0  0  0
    7.1962   -0.5000    0.0000 C   0  0  0  0  0  0  0  0  0  0  0  0
   20.1865   -2.0000    0.0000 C   0  0  0  0  0  0  0  0  0  0  0  0
    6.3301   -1.0000    0.0000 C   0  0  0  0  0  0  0  0  0  0  0  0
   13.2583   -2.0000    0.0000 C   0  0  0  0  0  0  0  0  0  0  0  0
    5.4641   -0.5000    0.0000 C   0  0  0  0  0  0  0  0  0  0  0  0
   28.8468   -1.0000    0.0000 C   0  0  0  0  0  0  0  0  0  0  0  0
   23.6506   -2.0000    0.0000 C   0  0  0  0  0  0  0  0  0  0  0  0
   27.9808   -0.5000    0.0000 C   0  0  0  0  0  0  0  0  0  0  0  0
    9.7942   -2.0000    0.0000 C   0  0  0  0  0  0  0  0  0  0  0  0
   29.7128   -0.5000    0.0000 C   0  0  0  0  0  0  0  0  0  0  0  0
    4.5981   -1.0000    0.0000 C   0  0  0  0  0  0  0  0  0  0  0  0
   27.1147   -2.0000    0.0000 C   0  0  0  0  0  0  0  0  0  0  0  0
    6.3301   -2.0000    0.0000 C   0  0  0  0  0  0  0  0  0  0  0  0
   30.5788   -1.0000    0.0000 C   0  0  0  0  0  0  0  0  0  0  0  0
   31.4449   -0.5000    0.0000 C   0  0  0  0  0  0  0  0  0  0  0  0
   31.4449    0.5000    0.0000 C   0  0  0  0  0  0  0  0  0  0  0  0
   29.7128    0.5000    0.0000 C   0  0  0  0  0  0  0  0  0  0  0  0
   30.5788    1.0000    0.0000 C   0  0  0  0  0  0  0  0  0  0  0  0
    3.7320   -0.5000    0.0000 C   0  0  0  0  0  0  0  0  0  0  0  0
   32.3388   -1.0347    0.0000 C   0  0  0  0  0  0  0  0  0  0  0  0
   32.3388    1.0347    0.0000 C   0  0  0  0  0  0  0  0  0  0  0  0
    2.8660   -1.0000    0.0000 C   0  0  0  0  0  0  0  0  0  0  0  0
   33.2449   -0.5208    0.0000 C   0  0  0  0  0  0  0  0  0  0  0  0
   33.2449    0.5208    0.0000 C   0  0  0  0  0  0  0  0  0  0  0  0
    2.0000   -0.5000    0.0000 C   0  0  0  0  0  0  0  0  0  0  0  0
    2.8660   -2.0000    0.0000 C   0  0  0  0  0  0  0  0  0  0  0  0
   16.2549   -0.0251    0.0000 H   0  0  0  0  0  0  0  0  0  0  0  0
   15.4579   -0.0251    0.0000 H   0  0  0  0  0  0  0  0  0  0  0  0
   19.7190   -0.0251    0.0000 H   0  0  0  0  0  0  0  0  0  0  0  0
   18.9220   -0.0251    0.0000 H   0  0  0  0  0  0  0  0  0  0  0  0
   18.0560   -1.4750    0.0000 H   0  0  0  0  0  0  0  0  0  0  0  0
   18.8530   -1.4750    0.0000 H   0  0  0  0  0  0  0  0  0  0  0  0
   14.5919   -1.4750    0.0000 H   0  0  0  0  0  0  0  0  0  0  0  0
   15.3889   -1.4750    0.0000 H   0  0  0  0  0  0  0  0  0  0  0  0
   12.7908   -0.0251    0.0000 H   0  0  0  0  0  0  0  0  0  0  0  0
   11.9938   -0.0251    0.0000 H   0  0  0  0  0  0  0  0  0  0  0  0
   23.1831   -0.0251    0.0000 H   0  0  0  0  0  0  0  0  0  0  0  0
   22.3861   -0.0251    0.0000 H   0  0  0  0  0  0  0  0  0  0  0  0
   21.5201   -1.4750    0.0000 H   0  0  0  0  0  0  0  0  0  0  0  0
   22.3171   -1.4750    0.0000 H   0  0  0  0  0  0  0  0  0  0  0  0
   11.1278   -1.4750    0.0000 H   0  0  0  0  0  0  0  0  0  0  0  0
   11.9248   -1.4750    0.0000 H   0  0  0  0  0  0  0  0  0  0  0  0
    9.3267   -0.0251    0.0000 H   0  0  0  0  0  0  0  0  0  0  0  0
    8.5297   -0.0251    0.0000 H   0  0  0  0  0  0  0  0  0  0  0  0
   17.5885    0.1200    0.0000 H   0  0  0  0  0  0  0  0  0  0  0  0
   14.1244    0.1200    0.0000 H   0  0  0  0  0  0  0  0  0  0  0  0
   21.0526    0.1200    0.0000 H   0  0  0  0  0  0  0  0  0  0  0  0
   24.9842   -1.4750    0.0000 H   0  0  0  0  0  0  0  0  0  0  0  0
   25.7812   -1.4750    0.0000 H   0  0  0  0  0  0  0  0  0  0  0  0
   26.6472   -0.0251    0.0000 H   0  0  0  0  0  0  0  0  0  0  0  0
   25.8502   -0.0251    0.0000 H   0  0  0  0  0  0  0  0  0  0  0  0
    7.6636   -1.4750    0.0000 H   0  0  0  0  0  0  0  0  0  0  0  0
    8.4607   -1.4750    0.0000 H   0  0  0  0  0  0  0  0  0  0  0  0
   10.6603    0.1200    0.0000 H   0  0  0  0  0  0  0  0  0  0  0  0
   24.5167    0.1200    0.0000 H   0  0  0  0  0  0  0  0  0  0  0  0
   16.1024   -2.0000    0.0000 H   0  0  0  0  0  0  0  0  0  0  0  0
   16.7224   -2.6200    0.0000 H   0  0  0  0  0  0  0  0  0  0  0  0
   17.3424   -2.0000    0.0000 H   0  0  0  0  0  0  0  0  0  0  0  0
    7.1962    0.1200    0.0000 H   0  0  0  0  0  0  0  0  0  0  0  0
   19.5665   -2.0000    0.0000 H   0  0  0  0  0  0  0  0  0  0  0  0
   20.1865   -2.6200    0.0000 H   0  0  0  0  0  0  0  0  0  0  0  0
   20.8065   -2.0000    0.0000 H   0  0  0  0  0  0  0  0  0  0  0  0
   12.6383   -2.0000    0.0000 H   0  0  0  0  0  0  0  0  0  0  0  0
   13.2583   -2.6200    0.0000 H   0  0  0  0  0  0  0  0  0  0  0  0
   13.8783   -2.0000    0.0000 H   0  0  0  0  0  0  0  0  0  0  0  0
    5.8626   -0.0251    0.0000 H   0  0  0  0  0  0  0  0  0  0  0  0
    5.0656   -0.0251    0.0000 H   0  0  0  0  0  0  0  0  0  0  0  0
   28.4483   -1.4750    0.0000 H   0  0  0  0  0  0  0  0  0  0  0  0
   29.2453   -1.4750    0.0000 H   0  0  0  0  0  0  0  0  0  0  0  0
   23.0306   -2.0000    0.0000 H   0  0  0  0  0  0  0  0  0  0  0  0
   23.6506   -2.6200    0.0000 H   0  0  0  0  0  0  0  0  0  0  0  0
   24.2706   -2.0000    0.0000 H   0  0  0  0  0  0  0  0  0  0  0  0
   27.9808    0.1200    0.0000 H   0  0  0  0  0  0  0  0  0  0  0  0
    9.1742   -2.0000    0.0000 H   0  0  0  0  0  0  0  0  0  0  0  0
    9.7942   -2.6200    0.0000 H   0  0  0  0  0  0  0  0  0  0  0  0
   10.4142   -2.0000    0.0000 H   0  0  0  0  0  0  0  0  0  0  0  0
    4.1996   -1.4750    0.0000 H   0  0  0  0  0  0  0  0  0  0  0  0
    4.9966   -1.4750    0.0000 H   0  0  0  0  0  0  0  0  0  0  0  0
   26.4947   -2.0000    0.0000 H   0  0  0  0  0  0  0  0  0  0  0  0
   27.1147   -2.6200    0.0000 H   0  0  0  0  0  0  0  0  0  0  0  0
   27.7347   -2.0000    0.0000 H   0  0  0  0  0  0  0  0  0  0  0  0
    5.7101   -2.0000    0.0000 H   0  0  0  0  0  0  0  0  0  0  0  0
    6.3301   -2.6200    0.0000 H   0  0  0  0  0  0  0  0  0  0  0  0
    6.9501   -2.0000    0.0000 H   0  0  0  0  0  0  0  0  0  0  0  0
   29.1759    0.8100    0.0000 H   0  0  0  0  0  0  0  0  0  0  0  0
    3.7320    0.1200    0.0000 H   0  0  0  0  0  0  0  0  0  0  0  0
   32.3316   -1.6546    0.0000 H   0  0  0  0  0  0  0  0  0  0  0  0
   32.3316    1.6546    0.0000 H   0  0  0  0  0  0  0  0  0  0  0  0
   33.7806   -0.8329    0.0000 H   0  0  0  0  0  0  0  0  0  0  0  0
   33.7806    0.8329    0.0000 H   0  0  0  0  0  0  0  0  0  0  0  0
    2.3100    0.0369    0.0000 H   0  0  0  0  0  0  0  0  0  0  0  0
    1.4631   -0.1900    0.0000 H   0  0  0  0  0  0  0  0  0  0  0  0
    1.6900   -1.0369    0.0000 H   0  0  0  0  0  0  0  0  0  0  0  0
    2.2460   -2.0000    0.0000 H   0  0  0  0  0  0  0  0  0  0  0  0
    2.8660   -2.6200    0.0000 H   0  0  0  0  0  0  0  0  0  0  0  0
    3.4860   -2.0000    0.0000 H   0  0  0  0  0  0  0  0  0  0  0  0
  1 40  2  0  0  0  0
  2 44  2  0  0  0  0
  3  6  1  0  0  0  0
  3  9  1  0  0  0  0
  3 53  1  0  0  0  0
  3 54  1  0  0  0  0
  4  5  1  0  0  0  0
  4 12  1  0  0  0  0
  4 55  1  0  0  0  0
  4 56  1  0  0  0  0
  5 16  1  0  0  0  0
  5 57  1  0  0  0  0
  5 58  1  0  0  0  0
  6 17  1  0  0  0  0
  6 59  1  0  0  0  0
  6 60  1  0  0  0  0
  7 11  1  0  0  0  0
  7 13  1  0  0  0  0
  7 61  1  0  0  0  0
  7 62  1  0  0  0  0
  8 10  1  0  0  0  0
  8 15  1  0  0  0  0
  8 63  1  0  0  0  0
  8 64  1  0  0  0  0
  9 16  2  3  0  0  0
  9 26  1  0  0  0  0
 10 19  1  0  0  0  0
 10 65  1  0  0  0  0
 10 66  1  0  0  0  0
 11 23  1  0  0  0  0
 11 67  1  0  0  0  0
 11 68  1  0  0  0  0
 12 19  2  3  0  0  0
 12 28  1  0  0  0  0
 13 17  2  3  0  0  0
 13 30  1  0  0  0  0
 14 18  1  0  0  0  0
 14 22  1  0  0  0  0
 14 69  1  0  0  0  0
 14 70  1  0  0  0  0
 15 24  2  3  0  0  0
 15 33  1  0  0  0  0
 16 71  1  0  0  0  0
 17 72  1  0  0  0  0
 18 23  2  3  0  0  0
 18 35  1  0  0  0  0
 19 73  1  0  0  0  0
 20 21  1  0  0  0  0
 20 24  1  0  0  0  0
 20 74  1  0  0  0  0
 20 75  1  0  0  0  0
 21 25  1  0  0  0  0
 21 76  1  0  0  0  0
 21 77  1  0  0  0  0
 22 27  1  0  0  0  0
 22 78  1  0  0  0  0
 22 79  1  0  0  0  0
 23 80  1  0  0  0  0
 24 81  1  0  0  0  0
 25 34  2  3  0  0  0
 25 38  1  0  0  0  0
 26 82  1  0  0  0  0
 26 83  1  0  0  0  0
 26 84  1  0  0  0  0
 27 29  2  3  0  0  0
 27 85  1  0  0  0  0
 28 86  1  0  0  0  0
 28 87  1  0  0  0  0
 28 88  1  0  0  0  0
 29 31  1  0  0  0  0
 29 39  1  0  0  0  0
 30 89  1  0  0  0  0
 30 90  1  0  0  0  0
 30 91  1  0  0  0  0
 31 37  1  0  0  0  0
 31 92  1  0  0  0  0
 31 93  1  0  0  0  0
 32 34  1  0  0  0  0
 32 36  1  0  0  0  0
 32 94  1  0  0  0  0
 32 95  1  0  0  0  0
 33 96  1  0  0  0  0
 33 97  1  0  0  0  0
 33 98  1  0  0  0  0
 34 99  1  0  0  0  0
 35100  1  0  0  0  0
 35101  1  0  0  0  0
 35102  1  0  0  0  0
 36 40  1  0  0  0  0
 36 43  2  0  0  0  0
 37 45  1  0  0  0  0
 37103  1  0  0  0  0
 37104  1  0  0  0  0
 38105  1  0  0  0  0
 38106  1  0  0  0  0
 38107  1  0  0  0  0
 39108  1  0  0  0  0
 39109  1  0  0  0  0
 39110  1  0  0  0  0
 40 41  1  0  0  0  0
 41 42  1  0  0  0  0
 41 46  2  0  0  0  0
 42 44  1  0  0  0  0
 42 47  2  0  0  0  0
 43 44  1  0  0  0  0
 43111  1  0  0  0  0
 45 48  2  0  0  0  0
 45112  1  0  0  0  0
 46 49  1  0  0  0  0
 46113  1  0  0  0  0
 47 50  1  0  0  0  0
 47114  1  0  0  0  0
 48 51  1  0  0  0  0
 48 52  1  0  0  0  0
 49 50  2  0  0  0  0
 49115  1  0  0  0  0
 50116  1  0  0  0  0
 51117  1  0  0  0  0
 51118  1  0  0  0  0
 51119  1  0  0  0  0
 52120  1  0  0  0  0
 52121  1  0  0  0  0
 52122  1  0  0  0  0
M  END
> <PUBCHEM_COMPOUND_CID>
633

> <PUBCHEM_COMPOUND_CANONICALIZED>
1

> <PUBCHEM_CACTVS_COMPLEXITY>
1420

> <PUBCHEM_CACTVS_HBOND_ACCEPTOR>
2

> <PUBCHEM_CACTVS_HBOND_DONOR>
0

> <PUBCHEM_CACTVS_ROTATABLE_BOND>
23

> <PUBCHEM_CACTVS_SUBSKEYS>
AAADcfB8MAAAAAAAAAAAAAAAAAAAAAAAAAAwQAAAAAAAAACBAAAAGgAAAAAADASAmAAyAIAAAACIAqBSAAACAAAkAAAIiAEAAMgIIDKAFRCAIQAggAAIiYcJiMCOgAAAAAAQAAAAAAAAACAAAAAAAAAAAA==

> <PUBCHEM_IUPAC_OPENEYE_NAME>
2-(3,7,11,15,19,23,27,31-octamethyldotriaconta-2,6,10,14,18,22,26,30-octaenyl)naphthalene-1,4-dione

> <PUBCHEM_IUPAC_CAS_NAME>
2-(3,7,11,15,19,23,27,31-octamethyldotriaconta-2,6,10,14,18,22,26,30-octaenyl)naphthalene-1,4-dione

> <PUBCHEM_IUPAC_NAME_MARKUP>
2-(3,7,11,15,19,23,27,31-octamethyldotriaconta-2,6,10,14,18,22,26,30-octaenyl)naphthalene-1,4-dione

> <PUBCHEM_IUPAC_NAME>
2-(3,7,11,15,19,23,27,31-octamethyldotriaconta-2,6,10,14,18,22,26,30-octaenyl)naphthalene-1,4-dione

> <PUBCHEM_IUPAC_SYSTEMATIC_NAME>
2-(3,7,11,15,19,23,27,31-octamethyldotriaconta-2,6,10,14,18,22,26,30-octaenyl)naphthalene-1,4-dione

> <PUBCHEM_IUPAC_TRADITIONAL_NAME>
2-(3,7,11,15,19,23,27,31-octamethyldotriaconta-2,6,10,14,18,22,26,30-octaenyl)-1,4-naphthoquinone

> <PUBCHEM_IUPAC_INCHI>
InChI=1S/C50H70O2/c1-38(2)19-12-20-39(3)21-13-22-40(4)23-14-24-41(5)25-15-26-42(6)27-16-28-43(7)29-17-30-44(8)31-18-32-45(9)35-36-46-37-49(51)47-33-10-11-34-48(47)50(46)52/h10-11,19,21,23,25,27,29,31,33-35,37H,12-18,20,22,24,26,28,30,32,36H2,1-9H3

> <PUBCHEM_IUPAC_INCHIKEY>
GDUBPWSFXUAETN-UHFFFAOYSA-N

> <PUBCHEM_XLOGP3>
16.8

> <PUBCHEM_EXACT_MASS>
702.53758147

> <PUBCHEM_MOLECULAR_FORMULA>
C50H70O2

> <PUBCHEM_MOLECULAR_WEIGHT>
703.1

> <PUBCHEM_SMILES>
CC(=CCCC(=CCCC(=CCCC(=CCCC(=CCCC(=CCCC(=CCCC(=CCC1=CC(=O)C2=CC=CC=C2C1=O)C)C)C)C)C)C)C)C

> <PUBCHEM_CONNECTIVITY_SMILES>
CC(=CCCC(=CCCC(=CCCC(=CCCC(=CCCC(=CCCC(=CCCC(=CCC1=CC(=O)C2=CC=CC=C2C1=O)C)C)C)C)C)C)C)C

> <PUBCHEM_CACTVS_TPSA>
34.1

> <PUBCHEM_MONOISOTOPIC_WEIGHT>
702.53758147

> <PUBCHEM_TOTAL_CHARGE>
0

> <PUBCHEM_HEAVY_ATOM_COUNT>
52

> <PUBCHEM_ATOM_DEF_STEREO_COUNT>
0

> <PUBCHEM_ATOM_UDEF_STEREO_COUNT>
0

> <PUBCHEM_BOND_DEF_STEREO_COUNT>
0

> <PUBCHEM_BOND_UDEF_STEREO_COUNT>
7

> <PUBCHEM_ISOTOPIC_ATOM_COUNT>
0

> <PUBCHEM_COMPONENT_COUNT>
1

> <PUBCHEM_CACTVS_TAUTO_COUNT>
-1

> <PUBCHEM_COORDINATE_TYPE>
1
5
255

> <PUBCHEM_BONDANNOTATIONS>
12  19  1
13  17  1
15  24  1
18  23  1
25  34  1
27  29  1
41  42  8
41  46  8
42  47  8
46  49  8
47  50  8
49  50  8
9  16  1

$$$$
