56
  -OEChem-08152602182D

118118  0     0  0  0  0  0  0999 V2000
   30.5788    1.3450    0.0000 O   0  0  0  0  0  0  0  0  0  0  0  0
   32.3109    0.3450    0.0000 O   0  0  0  0  0  0  0  0  0  0  0  0
   15.8564   -0.1550    0.0000 C   0  0  0  0  0  0  0  0  0  0  0  0
   19.3205   -0.1550    0.0000 C   0  0  0  0  0  0  0  0  0  0  0  0
   18.4545    0.3450    0.0000 C   0  0  0  0  0  0  0  0  0  0  0  0
   14.9904    0.3450    0.0000 C   0  0  0  0  0  0  0  0  0  0  0  0
   12.3923   -0.1550    0.0000 C   0  0  0  0  0  0  0  0  0  0  0  0
   16.7224    0.3450    0.0000 C   0  0  0  0  0  0  0  0  0  0  0  0
   22.7846   -0.1550    0.0000 C   0  0  0  0  0  0  0  0  0  0  0  0
   21.9186    0.3450    0.0000 C   0  0  0  0  0  0  0  0  0  0  0  0
   20.1865    0.3450    0.0000 C   0  0  0  0  0  0  0  0  0  0  0  0
   11.5263    0.3450    0.0000 C   0  0  0  0  0  0  0  0  0  0  0  0
   13.2583    0.3450    0.0000 C   0  0  0  0  0  0  0  0  0  0  0  0
   17.5885   -0.1550    0.0000 C   0  0  0  0  0  0  0  0  0  0  0  0
   14.1244   -0.1550    0.0000 C   0  0  0  0  0  0  0  0  0  0  0  0
   23.6506    0.3450    0.0000 C   0  0  0  0  0  0  0  0  0  0  0  0
    8.9282   -0.1550    0.0000 C   0  0  0  0  0  0  0  0  0  0  0  0
   21.0526   -0.1550    0.0000 C   0  0  0  0  0  0  0  0  0  0  0  0
    9.7942    0.3450    0.0000 C   0  0  0  0  0  0  0  0  0  0  0  0
   10.6603   -0.1550    0.0000 C   0  0  0  0  0  0  0  0  0  0  0  0
   25.3827    0.3450    0.0000 C   0  0  0  0  0  0  0  0  0  0  0  0
    8.0622    0.3450    0.0000 C   0  0  0  0  0  0  0  0  0  0  0  0
   26.2487   -0.1550    0.0000 C   0  0  0  0  0  0  0  0  0  0  0  0
   24.5167   -0.1550    0.0000 C   0  0  0  0  0  0  0  0  0  0  0  0
   16.7224    1.3450    0.0000 C   0  0  0  0  0  0  0  0  0  0  0  0
   20.1865    1.3450    0.0000 C   0  0  0  0  0  0  0  0  0  0  0  0
   13.2583    1.3450    0.0000 C   0  0  0  0  0  0  0  0  0  0  0  0
   27.1147    0.3450    0.0000 C   0  0  0  0  0  0  0  0  0  0  0  0
    7.1962   -0.1550    0.0000 C   0  0  0  0  0  0  0  0  0  0  0  0
    6.3301    0.3450    0.0000 C   0  0  0  0  0  0  0  0  0  0  0  0
   23.6506    1.3450    0.0000 C   0  0  0  0  0  0  0  0  0  0  0  0
    9.7942    1.3450    0.0000 C   0  0  0  0  0  0  0  0  0  0  0  0
    5.4641   -0.1550    0.0000 C   0  0  0  0  0  0  0  0  0  0  0  0
   27.9808   -0.1550    0.0000 C   0  0  0  0  0  0  0  0  0  0  0  0
   28.8468    0.3450    0.0000 C   0  0  0  0  0  0  0  0  0  0  0  0
    4.5981    0.3450    0.0000 C   0  0  0  0  0  0  0  0  0  0  0  0
   27.1147    1.3450    0.0000 C   0  0  0  0  0  0  0  0  0  0  0  0
    6.3301    1.3450    0.0000 C   0  0  0  0  0  0  0  0  0  0  0  0
   29.7128   -0.1550    0.0000 C   0  0  0  0  0  0  0  0  0  0  0  0
    3.7320   -0.1550    0.0000 C   0  0  0  0  0  0  0  0  0  0  0  0
   30.5788    0.3450    0.0000 C   0  0  0  0  0  0  0  0  0  0  0  0
   29.7128   -1.1550    0.0000 C   0  0  0  0  0  0  0  0  0  0  0  0
   31.4449   -0.1550    0.0000 C   0  0  0  0  0  0  0  0  0  0  0  0
   30.5788   -1.6550    0.0000 C   0  0  0  0  0  0  0  0  0  0  0  0
   31.4449   -1.1550    0.0000 C   0  0  0  0  0  0  0  0  0  0  0  0
    2.8660    0.3450    0.0000 C   0  0  0  0  0  0  0  0  0  0  0  0
    2.0000   -0.1550    0.0000 C   0  0  0  0  0  0  0  0  0  0  0  0
   33.1769   -0.1550    0.0000 C   0  0  0  0  0  0  0  0  0  0  0  0
   15.4579   -0.6299    0.0000 H   0  0  0  0  0  0  0  0  0  0  0  0
   16.2549   -0.6299    0.0000 H   0  0  0  0  0  0  0  0  0  0  0  0
   18.9220   -0.6299    0.0000 H   0  0  0  0  0  0  0  0  0  0  0  0
   19.7190   -0.6299    0.0000 H   0  0  0  0  0  0  0  0  0  0  0  0
   18.8530    0.8199    0.0000 H   0  0  0  0  0  0  0  0  0  0  0  0
   18.0560    0.8199    0.0000 H   0  0  0  0  0  0  0  0  0  0  0  0
   15.3889    0.8199    0.0000 H   0  0  0  0  0  0  0  0  0  0  0  0
   14.5919    0.8199    0.0000 H   0  0  0  0  0  0  0  0  0  0  0  0
   11.9938   -0.6299    0.0000 H   0  0  0  0  0  0  0  0  0  0  0  0
   12.7908   -0.6299    0.0000 H   0  0  0  0  0  0  0  0  0  0  0  0
   22.3861   -0.6299    0.0000 H   0  0  0  0  0  0  0  0  0  0  0  0
   23.1831   -0.6299    0.0000 H   0  0  0  0  0  0  0  0  0  0  0  0
   22.3171    0.8199    0.0000 H   0  0  0  0  0  0  0  0  0  0  0  0
   21.5201    0.8199    0.0000 H   0  0  0  0  0  0  0  0  0  0  0  0
   11.9248    0.8199    0.0000 H   0  0  0  0  0  0  0  0  0  0  0  0
   11.1278    0.8199    0.0000 H   0  0  0  0  0  0  0  0  0  0  0  0
   17.5885   -0.7750    0.0000 H   0  0  0  0  0  0  0  0  0  0  0  0
   14.1244   -0.7750    0.0000 H   0  0  0  0  0  0  0  0  0  0  0  0
    8.5297   -0.6299    0.0000 H   0  0  0  0  0  0  0  0  0  0  0  0
    9.3267   -0.6299    0.0000 H   0  0  0  0  0  0  0  0  0  0  0  0
   21.0526   -0.7750    0.0000 H   0  0  0  0  0  0  0  0  0  0  0  0
   10.6603   -0.7750    0.0000 H   0  0  0  0  0  0  0  0  0  0  0  0
   25.7812    0.8199    0.0000 H   0  0  0  0  0  0  0  0  0  0  0  0
   24.9842    0.8199    0.0000 H   0  0  0  0  0  0  0  0  0  0  0  0
    8.4607    0.8199    0.0000 H   0  0  0  0  0  0  0  0  0  0  0  0
    7.6636    0.8199    0.0000 H   0  0  0  0  0  0  0  0  0  0  0  0
   25.8502   -0.6299    0.0000 H   0  0  0  0  0  0  0  0  0  0  0  0
   26.6472   -0.6299    0.0000 H   0  0  0  0  0  0  0  0  0  0  0  0
   24.5167   -0.7750    0.0000 H   0  0  0  0  0  0  0  0  0  0  0  0
   17.3424    1.3450    0.0000 H   0  0  0  0  0  0  0  0  0  0  0  0
   16.7224    1.9650    0.0000 H   0  0  0  0  0  0  0  0  0  0  0  0
   16.1024    1.3450    0.0000 H   0  0  0  0  0  0  0  0  0  0  0  0
   20.8065    1.3450    0.0000 H   0  0  0  0  0  0  0  0  0  0  0  0
   20.1865    1.9650    0.0000 H   0  0  0  0  0  0  0  0  0  0  0  0
   19.5665    1.3450    0.0000 H   0  0  0  0  0  0  0  0  0  0  0  0
   13.8783    1.3450    0.0000 H   0  0  0  0  0  0  0  0  0  0  0  0
   13.2583    1.9650    0.0000 H   0  0  0  0  0  0  0  0  0  0  0  0
   12.6383    1.3450    0.0000 H   0  0  0  0  0  0  0  0  0  0  0  0
    7.1962   -0.7750    0.0000 H   0  0  0  0  0  0  0  0  0  0  0  0
   24.2706    1.3450    0.0000 H   0  0  0  0  0  0  0  0  0  0  0  0
   23.6506    1.9650    0.0000 H   0  0  0  0  0  0  0  0  0  0  0  0
   23.0306    1.3450    0.0000 H   0  0  0  0  0  0  0  0  0  0  0  0
   10.4142    1.3450    0.0000 H   0  0  0  0  0  0  0  0  0  0  0  0
    9.7942    1.9650    0.0000 H   0  0  0  0  0  0  0  0  0  0  0  0
    9.1742    1.3450    0.0000 H   0  0  0  0  0  0  0  0  0  0  0  0
    5.0656   -0.6299    0.0000 H   0  0  0  0  0  0  0  0  0  0  0  0
    5.8626   -0.6299    0.0000 H   0  0  0  0  0  0  0  0  0  0  0  0
   27.9808   -0.7750    0.0000 H   0  0  0  0  0  0  0  0  0  0  0  0
   29.2453    0.8199    0.0000 H   0  0  0  0  0  0  0  0  0  0  0  0
   28.4483    0.8199    0.0000 H   0  0  0  0  0  0  0  0  0  0  0  0
    4.9966    0.8199    0.0000 H   0  0  0  0  0  0  0  0  0  0  0  0
    4.1996    0.8199    0.0000 H   0  0  0  0  0  0  0  0  0  0  0  0
   27.7347    1.3450    0.0000 H   0  0  0  0  0  0  0  0  0  0  0  0
   27.1147    1.9650    0.0000 H   0  0  0  0  0  0  0  0  0  0  0  0
   26.4947    1.3450    0.0000 H   0  0  0  0  0  0  0  0  0  0  0  0
    6.9501    1.3450    0.0000 H   0  0  0  0  0  0  0  0  0  0  0  0
    6.3301    1.9650    0.0000 H   0  0  0  0  0  0  0  0  0  0  0  0
    5.7101    1.3450    0.0000 H   0  0  0  0  0  0  0  0  0  0  0  0
    3.7320   -0.7750    0.0000 H   0  0  0  0  0  0  0  0  0  0  0  0
   29.1759   -1.4650    0.0000 H   0  0  0  0  0  0  0  0  0  0  0  0
   30.5788   -2.2750    0.0000 H   0  0  0  0  0  0  0  0  0  0  0  0
   31.9818   -1.4650    0.0000 H   0  0  0  0  0  0  0  0  0  0  0  0
    2.8660    0.9650    0.0000 H   0  0  0  0  0  0  0  0  0  0  0  0
   31.1158    1.6550    0.0000 H   0  0  0  0  0  0  0  0  0  0  0  0
    1.6900    0.3819    0.0000 H   0  0  0  0  0  0  0  0  0  0  0  0
    1.4631   -0.4650    0.0000 H   0  0  0  0  0  0  0  0  0  0  0  0
    2.3100   -0.6919    0.0000 H   0  0  0  0  0  0  0  0  0  0  0  0
   32.8669   -0.6919    0.0000 H   0  0  0  0  0  0  0  0  0  0  0  0
   33.7138   -0.4650    0.0000 H   0  0  0  0  0  0  0  0  0  0  0  0
   33.4869    0.3819    0.0000 H   0  0  0  0  0  0  0  0  0  0  0  0
  1 41  1  0  0  0  0
  1112  1  0  0  0  0
  2 43  1  0  0  0  0
  2 48  1  0  0  0  0
  3  6  1  0  0  0  0
  3  8  1  0  0  0  0
  3 49  1  0  0  0  0
  3 50  1  0  0  0  0
  4  5  1  0  0  0  0
  4 11  1  0  0  0  0
  4 51  1  0  0  0  0
  4 52  1  0  0  0  0
  5 14  1  0  0  0  0
  5 53  1  0  0  0  0
  5 54  1  0  0  0  0
  6 15  1  0  0  0  0
  6 55  1  0  0  0  0
  6 56  1  0  0  0  0
  7 12  1  0  0  0  0
  7 13  1  0  0  0  0
  7 57  1  0  0  0  0
  7 58  1  0  0  0  0
  8 14  2  3  0  0  0
  8 25  1  0  0  0  0
  9 10  1  0  0  0  0
  9 16  1  0  0  0  0
  9 59  1  0  0  0  0
  9 60  1  0  0  0  0
 10 18  1  0  0  0  0
 10 61  1  0  0  0  0
 10 62  1  0  0  0  0
 11 18  2  3  0  0  0
 11 26  1  0  0  0  0
 12 20  1  0  0  0  0
 12 63  1  0  0  0  0
 12 64  1  0  0  0  0
 13 15  2  3  0  0  0
 13 27  1  0  0  0  0
 14 65  1  0  0  0  0
 15 66  1  0  0  0  0
 16 24  2  3  0  0  0
 16 31  1  0  0  0  0
 17 19  1  0  0  0  0
 17 22  1  0  0  0  0
 17 67  1  0  0  0  0
 17 68  1  0  0  0  0
 18 69  1  0  0  0  0
 19 20  2  3  0  0  0
 19 32  1  0  0  0  0
 20 70  1  0  0  0  0
 21 23  1  0  0  0  0
 21 24  1  0  0  0  0
 21 71  1  0  0  0  0
 21 72  1  0  0  0  0
 22 29  1  0  0  0  0
 22 73  1  0  0  0  0
 22 74  1  0  0  0  0
 23 28  1  0  0  0  0
 23 75  1  0  0  0  0
 23 76  1  0  0  0  0
 24 77  1  0  0  0  0
 25 78  1  0  0  0  0
 25 79  1  0  0  0  0
 25 80  1  0  0  0  0
 26 81  1  0  0  0  0
 26 82  1  0  0  0  0
 26 83  1  0  0  0  0
 27 84  1  0  0  0  0
 27 85  1  0  0  0  0
 27 86  1  0  0  0  0
 28 34  2  3  0  0  0
 28 37  1  0  0  0  0
 29 30  2  3  0  0  0
 29 87  1  0  0  0  0
 30 33  1  0  0  0  0
 30 38  1  0  0  0  0
 31 88  1  0  0  0  0
 31 89  1  0  0  0  0
 31 90  1  0  0  0  0
 32 91  1  0  0  0  0
 32 92  1  0  0  0  0
 32 93  1  0  0  0  0
 33 36  1  0  0  0  0
 33 94  1  0  0  0  0
 33 95  1  0  0  0  0
 34 35  1  0  0  0  0
 34 96  1  0  0  0  0
 35 39  1  0  0  0  0
 35 97  1  0  0  0  0
 35 98  1  0  0  0  0
 36 40  1  0  0  0  0
 36 99  1  0  0  0  0
 36100  1  0  0  0  0
 37101  1  0  0  0  0
 37102  1  0  0  0  0
 37103  1  0  0  0  0
 38104  1  0  0  0  0
 38105  1  0  0  0  0
 38106  1  0  0  0  0
 39 41  2  0  0  0  0
 39 42  1  0  0  0  0
 40 46  2  3  0  0  0
 40107  1  0  0  0  0
 41 43  1  0  0  0  0
 42 44  2  0  0  0  0
 42108  1  0  0  0  0
 43 45  2  0  0  0  0
 44 45  1  0  0  0  0
 44109  1  0  0  0  0
 45110  1  0  0  0  0
 46 47  1  0  0  0  0
 46111  1  0  0  0  0
 47113  1  0  0  0  0
 47114  1  0  0  0  0
 47115  1  0  0  0  0
 48116  1  0  0  0  0
 48117  1  0  0  0  0
 48118  1  0  0  0  0
M  END
> <PUBCHEM_COMPOUND_CID>
56

> <PUBCHEM_COMPOUND_CANONICALIZED>
1

> <PUBCHEM_CACTVS_COMPLEXITY>
1120

> <PUBCHEM_CACTVS_HBOND_ACCEPTOR>
2

> <PUBCHEM_CACTVS_HBOND_DONOR>
1

> <PUBCHEM_CACTVS_ROTATABLE_BOND>
24

> <PUBCHEM_CACTVS_SUBSKEYS>
AAADcfB8MAAAAAAAAAAAAAAAAAAAAAAAAAAwAAAAAAAAAAABAAAAGgAACAAADASAmAIyBoAABgCAAiBCAAACCAAgIAAIiAAGiIgNJiKGMRqAcCMkwBELuAeAwLAOAAABAAAIQAAAAAIAABCAAAAAAAAAAA==

> <PUBCHEM_IUPAC_OPENEYE_NAME>
2-(3,7,11,15,19,23,27-heptamethyldotriaconta-2,6,10,14,18,22,26,30-octaenyl)-6-methoxy-phenol

> <PUBCHEM_IUPAC_CAS_NAME>
2-(3,7,11,15,19,23,27-heptamethyldotriaconta-2,6,10,14,18,22,26,30-octaenyl)-6-methoxyphenol

> <PUBCHEM_IUPAC_NAME_MARKUP>
2-(3,7,11,15,19,23,27-heptamethyldotriaconta-2,6,10,14,18,22,26,30-octaenyl)-6-methoxyphenol

> <PUBCHEM_IUPAC_NAME>
2-(3,7,11,15,19,23,27-heptamethyldotriaconta-2,6,10,14,18,22,26,30-octaenyl)-6-methoxyphenol

> <PUBCHEM_IUPAC_SYSTEMATIC_NAME>
2-(3,7,11,15,19,23,27-heptamethyldotriaconta-2,6,10,14,18,22,26,30-octaenyl)-6-methoxy-phenol

> <PUBCHEM_IUPAC_TRADITIONAL_NAME>
2-(3,7,11,15,19,23,27-heptamethyldotriaconta-2,6,10,14,18,22,26,30-octaenyl)-6-methoxy-phenol

> <PUBCHEM_IUPAC_INCHI>
InChI=1S/C46H70O2/c1-10-11-12-20-37(2)21-13-22-38(3)23-14-24-39(4)25-15-26-40(5)27-16-28-41(6)29-17-30-42(7)31-18-32-43(8)35-36-44-33-19-34-45(48-9)46(44)47/h10-11,19,21,23,25,27,29,31,33-35,47H,12-18,20,22,24,26,28,30,32,36H2,1-9H3

> <PUBCHEM_IUPAC_INCHIKEY>
MJLXNZUZQMWZTB-UHFFFAOYSA-N

> <PUBCHEM_XLOGP3_AA>
15.8

> <PUBCHEM_EXACT_MASS>
654.53758147

> <PUBCHEM_MOLECULAR_FORMULA>
C46H70O2

> <PUBCHEM_MOLECULAR_WEIGHT>
655.0

> <PUBCHEM_SMILES>
CC=CCCC(=CCCC(=CCCC(=CCCC(=CCCC(=CCCC(=CCCC(=CCC1=C(C(=CC=C1)OC)O)C)C)C)C)C)C)C

> <PUBCHEM_CONNECTIVITY_SMILES>
CC=CCCC(=CCCC(=CCCC(=CCCC(=CCCC(=CCCC(=CCCC(=CCC1=C(C(=CC=C1)OC)O)C)C)C)C)C)C)C

> <PUBCHEM_CACTVS_TPSA>
29.5

> <PUBCHEM_MONOISOTOPIC_WEIGHT>
654.53758147

> <PUBCHEM_TOTAL_CHARGE>
0

> <PUBCHEM_HEAVY_ATOM_COUNT>
48

> <PUBCHEM_ATOM_DEF_STEREO_COUNT>
0

> <PUBCHEM_ATOM_UDEF_STEREO_COUNT>
0

> <PUBCHEM_BOND_DEF_STEREO_COUNT>
0

> <PUBCHEM_BOND_UDEF_STEREO_COUNT>
8

> <PUBCHEM_ISOTOPIC_ATOM_COUNT>
0

> <PUBCHEM_COMPONENT_COUNT>
1

> <PUBCHEM_CACTVS_TAUTO_COUNT>
-1

> <PUBCHEM_COORDINATE_TYPE>
1
5
255

> <PUBCHEM_BONDANNOTATIONS>
11  18  1
13  15  1
16  24  1
19  20  1
28  34  1
29  30  1
39  41  8
39  42  8
40  46  1
41  43  8
42  44  8
43  45  8
44  45  8
8  14  1

$$$$
