191
  -OEChem-08152602283D

 32 34  0     1  0  0  0  0  0999 V2000
    1.8687   -0.1208    1.2083 O   0  0  0  0  0  0  0  0  0  0  0  0
    1.8497    2.6081   -0.6038 O   0  0  0  0  0  0  0  0  0  0  0  0
    2.6287   -0.7305   -1.6374 O   0  0  0  0  0  0  0  0  0  0  0  0
    5.2736   -0.9351    0.1963 O   0  0  0  0  0  0  0  0  0  0  0  0
   -0.3016   -0.1026    0.2544 N   0  0  0  0  0  0  0  0  0  0  0  0
   -1.5729   -1.8767   -0.1998 N   0  0  0  0  0  0  0  0  0  0  0  0
   -2.0194    1.6050    0.4379 N   0  0  0  0  0  0  0  0  0  0  0  0
   -4.2424    0.6695    0.0654 N   0  0  0  0  0  0  0  0  0  0  0  0
   -4.5974   -1.6483   -0.4129 N   0  0  0  0  0  0  0  0  0  0  0  0
    1.5695    1.2191   -0.7607 C   0  0  2  0  0  0  0  0  0  0  0  0
    0.9037    0.6879    0.5119 C   0  0  2  0  0  0  0  0  0  0  0  0
    2.8646    0.4350   -0.8582 C   0  0  1  0  0  0  0  0  0  0  0  0
    3.1531    0.0890    0.5984 C   0  0  2  0  0  0  0  0  0  0  0  0
    4.0198   -1.1351    0.8287 C   0  0  0  0  0  0  0  0  0  0  0  0
   -1.5897    0.3511    0.2316 C   0  0  0  0  0  0  0  0  0  0  0  0
   -0.3431   -1.4458   -0.0108 C   0  0  0  0  0  0  0  0  0  0  0  0
   -2.3622   -0.7641   -0.0511 C   0  0  0  0  0  0  0  0  0  0  0  0
   -3.7379   -0.5722   -0.1319 C   0  0  0  0  0  0  0  0  0  0  0  0
   -3.3648    1.6663    0.3340 C   0  0  0  0  0  0  0  0  0  0  0  0
    0.9310    1.1111   -1.6444 H   0  0  0  0  0  0  0  0  0  0  0  0
    0.6098    1.4981    1.1897 H   0  0  0  0  0  0  0  0  0  0  0  0
    3.6827    1.0001   -1.3165 H   0  0  0  0  0  0  0  0  0  0  0  0
    3.6074    0.9608    1.0873 H   0  0  0  0  0  0  0  0  0  0  0  0
    3.5516   -2.0452    0.4387 H   0  0  0  0  0  0  0  0  0  0  0  0
    4.1804   -1.2891    1.9013 H   0  0  0  0  0  0  0  0  0  0  0  0
    2.3089    2.9046   -1.4081 H   0  0  0  0  0  0  0  0  0  0  0  0
    3.4827   -1.1787   -1.7605 H   0  0  0  0  0  0  0  0  0  0  0  0
    0.5454   -2.0607   -0.0569 H   0  0  0  0  0  0  0  0  0  0  0  0
    5.8090   -1.7288    0.3662 H   0  0  0  0  0  0  0  0  0  0  0  0
   -3.8035    2.6467    0.4863 H   0  0  0  0  0  0  0  0  0  0  0  0
   -4.2232   -2.5758   -0.5608 H   0  0  0  0  0  0  0  0  0  0  0  0
   -5.5934   -1.4835   -0.4666 H   0  0  0  0  0  0  0  0  0  0  0  0
  1 11  1  0  0  0  0
  1 13  1  0  0  0  0
  2 10  1  0  0  0  0
  2 26  1  0  0  0  0
  3 12  1  0  0  0  0
  3 27  1  0  0  0  0
  4 14  1  0  0  0  0
  4 29  1  0  0  0  0
  5 11  1  0  0  0  0
  5 15  1  0  0  0  0
  5 16  1  0  0  0  0
  6 16  2  0  0  0  0
  6 17  1  0  0  0  0
  7 15  2  0  0  0  0
  7 19  1  0  0  0  0
  8 18  1  0  0  0  0
  8 19  2  0  0  0  0
  9 18  1  0  0  0  0
  9 31  1  0  0  0  0
  9 32  1  0  0  0  0
 10 11  1  0  0  0  0
 10 12  1  0  0  0  0
 10 20  1  0  0  0  0
 11 21  1  0  0  0  0
 12 13  1  0  0  0  0
 12 22  1  0  0  0  0
 13 14  1  0  0  0  0
 13 23  1  0  0  0  0
 14 24  1  0  0  0  0
 14 25  1  0  0  0  0
 15 17  1  0  0  0  0
 16 28  1  0  0  0  0
 17 18  2  0  0  0  0
 19 30  1  0  0  0  0
M  END
> <PUBCHEM_COMPOUND_CID>
191

> <PUBCHEM_CONFORMER_RMSD>
0.6

> <PUBCHEM_CONFORMER_DIVERSEORDER>
42
21
128
50
117
56
31
6
124
90
45
37
135
59
43
87
109
68
52
134
99
10
97
121
48
107
7
122
33
132
47
120
61
15
89
100
44
60
40
12
103
70
5
82
108
17
93
116
65
32
80
34
18
28
130
131
2
72
104
63
13
123
9
64
49
66
74
115
8
25
101
57
62
20
83
26
106
112
55
1
84
14
29
102
19
133
88
71
3
78
111
36
4
81
126
23
54
114
46
41
127
75
39
91
119
67
125
98
92
96
94
86
73
85
69
76
118
129
11
16
30
105
53
27
51
110
58
22
113
79
38
77
24
35
95

> <PUBCHEM_MMFF94_PARTIAL_CHARGES>
26
1 -0.56
10 0.28
11 0.54
12 0.28
13 0.28
14 0.28
15 0.11
16 0.04
17 0.23
18 0.41
19 0.47
2 -0.68
26 0.4
27 0.4
28 0.15
29 0.4
3 -0.68
30 0.15
31 0.4
32 0.4
4 -0.68
5 0.05
6 -0.57
7 -0.57
8 -0.62
9 -0.9

> <PUBCHEM_EFFECTIVE_ROTOR_COUNT>
3

> <PUBCHEM_PHARMACOPHORE_FEATURES>
15
1 1 acceptor
1 2 acceptor
1 2 donor
1 3 acceptor
1 3 donor
1 4 acceptor
1 4 donor
1 9 cation
1 9 donor
3 5 6 16 cation
3 5 7 15 cation
3 7 8 19 cation
5 1 10 11 12 13 rings
5 5 6 15 16 17 rings
6 7 8 15 17 18 19 rings

> <PUBCHEM_HEAVY_ATOM_COUNT>
19

> <PUBCHEM_ATOM_DEF_STEREO_COUNT>
0

> <PUBCHEM_ATOM_UDEF_STEREO_COUNT>
4

> <PUBCHEM_BOND_DEF_STEREO_COUNT>
0

> <PUBCHEM_BOND_UDEF_STEREO_COUNT>
0

> <PUBCHEM_ISOTOPIC_ATOM_COUNT>
0

> <PUBCHEM_COMPONENT_COUNT>
1

> <PUBCHEM_CACTVS_TAUTO_COUNT>
3

> <PUBCHEM_CONFORMER_ID>
000000BF0000002A

> <PUBCHEM_MMFF94_ENERGY>
44.1985

> <PUBCHEM_FEATURE_SELFOVERLAP>
76.729

> <PUBCHEM_SHAPE_FINGERPRINT>
10062212 137 18412820283602913475
10922523 26 18131637768089044719
11132069 177 18272936003517563745
12236239 1 18113336392596823384
12507560 40 18059845199698898240
12916754 54 18260545671408483471
13581323 91 18273491290658374850
13675066 3 18131064943831963802
13690532 89 18408600366079984803
13862211 1 18270396222258448503
14004511 7 18412826854596694097
14144814 61 18335421270297763425
15196674 1 18410854382328987769
15375358 24 17561079194398831250
15442244 35 18408322185612397312
15536298 74 18337951294046121912
16752209 62 18411408527931794267
16945 1 18410302418938767947
17492 89 18337391668171015050
17804303 29 18343298163077664592
17862501 102 18410006637441773123
1813 80 17169269244265437706
18186145 218 17240475944650832417
19422 9 18113622304269495515
200 152 18408597085204966507
20279233 1 17203891859573126966
20510252 161 18130791183128233025
21267235 1 18409454695294638547
2255824 54 17895478128357300380
22646028 28 18333447642694274242
23402539 116 18271797999886563357
23463225 33 18335419045404386331
23532345 12 18411136939531877520
23557571 272 17704071798177128075
23559900 14 18131347514790219648
296302 2 16917343762335092288
312423 11 18261966244383775937
3286 77 18261107508369458405
4340502 62 13973687278037596063
474 4 17388263608996418812
5104073 3 18412546539160979289
69090 78 17489299798151103303
7364860 26 18267583688214223904
74978 22 18261678176473919432
77492 1 18040434390972266889
9709674 26 18271534172835792903
9981440 41 17396422084074777096

> <PUBCHEM_SHAPE_MULTIPOLES>
342.63
8.71
1.91
0.96
0.55
0.5
-0.14
-2.14
0.23
-0.59
-0.19
0.78
-0.01
-0.79

> <PUBCHEM_SHAPE_SELFOVERLAP>
745.682

> <PUBCHEM_SHAPE_VOLUME>
182.4

> <PUBCHEM_COORDINATE_TYPE>
2
5
10

$$$$
