1067
  -OEChem-08152603402D

 97 99  0     1  0  0  0  0  0999 V2000
    5.4641   -0.5427    0.0000 P   0  0  3  0  0  0  0  0  0  0  0  0
    4.5320   -6.0186    0.0000 O   0  0  0  0  0  0  0  0  0  0  0  0
    6.3301   -5.0427    0.0000 O   0  0  0  0  0  0  0  0  0  0  0  0
    9.8106   -9.0773    0.0000 O   0  0  0  0  0  0  0  0  0  0  0  0
    8.0622   -3.0427    0.0000 O   0  0  0  0  0  0  0  0  0  0  0  0
   11.5923   -6.0186    0.0000 O   0  0  0  0  0  0  0  0  0  0  0  0
    5.4641   -3.5427    0.0000 O   0  0  0  0  0  0  0  0  0  0  0  0
    5.4641   -1.5427    0.0000 O   0  0  0  0  0  0  0  0  0  0  0  0
    5.4641    0.4573    0.0000 O   0  0  0  0  0  0  0  0  0  0  0  0
    4.4641   -0.5427    0.0000 O   0  0  0  0  0  0  0  0  0  0  0  0
    6.4641   -0.5427    0.0000 O   0  0  0  0  0  0  0  0  0  0  0  0
    5.4641    2.4573    0.0000 O   0  0  0  0  0  0  0  0  0  0  0  0
    2.8660    4.9573    0.0000 O   0  0  0  0  0  0  0  0  0  0  0  0
    6.3301    4.9573    0.0000 O   0  0  0  0  0  0  0  0  0  0  0  0
    2.0000    3.4573    0.0000 O   0  0  0  0  0  0  0  0  0  0  0  0
    7.1962    8.4573    0.0000 O   0  0  0  0  0  0  0  0  0  0  0  0
    5.4641    8.4573    0.0000 O   0  0  0  0  0  0  0  0  0  0  0  0
    9.7942    6.9573    0.0000 O   0  0  0  0  0  0  0  0  0  0  0  0
    8.9282    5.4573    0.0000 O   0  0  0  0  0  0  0  0  0  0  0  0
    8.0622   -6.0427    0.0000 N   0  0  3  0  0  0  0  0  0  0  0  0
    9.8222   -6.0080    0.0000 N   0  0  0  0  0  0  0  0  0  0  0  0
   10.7282   -7.5635    0.0000 N   0  0  0  0  0  0  0  0  0  0  0  0
    3.7320    2.4573    0.0000 N   0  0  0  0  0  0  0  0  0  0  0  0
    5.4641    6.4573    0.0000 N   0  0  0  0  0  0  0  0  0  0  0  0
    7.1962   -6.5427    0.0000 C   0  0  3  0  0  0  0  0  0  0  0  0
    7.1962   -7.5427    0.0000 C   0  0  3  0  0  0  0  0  0  0  0  0
    6.3022   -6.0080    0.0000 C   0  0  0  0  0  0  0  0  0  0  0  0
    6.3022   -8.0774    0.0000 C   0  0  0  0  0  0  0  0  0  0  0  0
    8.0622   -8.0427    0.0000 C   0  0  0  0  0  0  0  0  0  0  0  0
    5.3961   -6.5219    0.0000 C   0  0  3  0  0  0  0  0  0  0  0  0
    5.3961   -7.5635    0.0000 C   0  0  0  0  0  0  0  0  0  0  0  0
    8.9282   -7.5427    0.0000 C   0  0  0  0  0  0  0  0  0  0  0  0
    8.9282   -6.5427    0.0000 C   0  0  0  0  0  0  0  0  0  0  0  0
    8.0622   -5.0427    0.0000 C   0  0  0  0  0  0  0  0  0  0  0  0
    7.1962   -4.5427    0.0000 C   0  0  3  0  0  0  0  0  0  0  0  0
    9.8222   -8.0774    0.0000 C   0  0  0  0  0  0  0  0  0  0  0  0
    7.1962   -3.5427    0.0000 C   0  0  3  0  0  0  0  0  0  0  0  0
   10.7282   -6.5219    0.0000 C   0  0  0  0  0  0  0  0  0  0  0  0
    6.3301   -3.0427    0.0000 C   0  0  3  0  0  0  0  0  0  0  0  0
    6.3301   -2.0427    0.0000 C   0  0  0  0  0  0  0  0  0  0  0  0
    4.5981    0.9573    0.0000 C   0  0  3  0  0  0  0  0  0  0  0  0
    4.5981    1.9573    0.0000 C   0  0  0  0  0  0  0  0  0  0  0  0
    3.7320    0.4573    0.0000 C   0  0  0  0  0  0  0  0  0  0  0  0
    3.7320    3.4573    0.0000 C   0  0  3  0  0  0  0  0  0  0  0  0
    4.5981    3.9573    0.0000 C   0  0  0  0  0  0  0  0  0  0  0  0
    4.5981    4.9573    0.0000 C   0  0  0  0  0  0  0  0  0  0  0  0
    6.3301    6.9573    0.0000 C   0  0  3  0  0  0  0  0  0  0  0  0
    5.4641    5.4573    0.0000 C   0  0  0  0  0  0  0  0  0  0  0  0
    2.8660    3.9573    0.0000 C   0  0  0  0  0  0  0  0  0  0  0  0
    7.1962    6.4573    0.0000 C   0  0  0  0  0  0  0  0  0  0  0  0
    8.0622    6.9573    0.0000 C   0  0  0  0  0  0  0  0  0  0  0  0
    6.3301    7.9573    0.0000 C   0  0  0  0  0  0  0  0  0  0  0  0
    8.9282    6.4573    0.0000 C   0  0  0  0  0  0  0  0  0  0  0  0
    7.2009   -5.9227    0.0000 H   0  0  0  0  0  0  0  0  0  0  0  0
    7.2009   -8.1627    0.0000 H   0  0  0  0  0  0  0  0  0  0  0  0
    6.7068   -5.5382    0.0000 H   0  0  0  0  0  0  0  0  0  0  0  0
    5.9086   -5.5290    0.0000 H   0  0  0  0  0  0  0  0  0  0  0  0
    5.9086   -8.5564    0.0000 H   0  0  0  0  0  0  0  0  0  0  0  0
    6.7068   -8.5472    0.0000 H   0  0  0  0  0  0  0  0  0  0  0  0
    7.6636   -8.5176    0.0000 H   0  0  0  0  0  0  0  0  0  0  0  0
    8.4607   -8.5176    0.0000 H   0  0  0  0  0  0  0  0  0  0  0  0
    4.8586   -6.8308    0.0000 H   0  0  0  0  0  0  0  0  0  0  0  0
    4.7853   -7.4574    0.0000 H   0  0  0  0  0  0  0  0  0  0  0  0
    5.1871   -8.1472    0.0000 H   0  0  0  0  0  0  0  0  0  0  0  0
    8.6728   -5.1504    0.0000 H   0  0  0  0  0  0  0  0  0  0  0  0
    8.2742   -4.4601    0.0000 H   0  0  0  0  0  0  0  0  0  0  0  0
    6.6592   -4.2327    0.0000 H   0  0  0  0  0  0  0  0  0  0  0  0
    9.8150   -5.3881    0.0000 H   0  0  0  0  0  0  0  0  0  0  0  0
    3.9939   -6.3265    0.0000 H   0  0  0  0  0  0  0  0  0  0  0  0
    7.7331   -3.8527    0.0000 H   0  0  0  0  0  0  0  0  0  0  0  0
   11.2639   -7.8756    0.0000 H   0  0  0  0  0  0  0  0  0  0  0  0
    5.7932   -2.7327    0.0000 H   0  0  0  0  0  0  0  0  0  0  0  0
    5.7932   -4.7327    0.0000 H   0  0  0  0  0  0  0  0  0  0  0  0
    8.0622   -2.4227    0.0000 H   0  0  0  0  0  0  0  0  0  0  0  0
    6.9407   -2.1504    0.0000 H   0  0  0  0  0  0  0  0  0  0  0  0
    6.5422   -1.4601    0.0000 H   0  0  0  0  0  0  0  0  0  0  0  0
    4.9272   -3.2327    0.0000 H   0  0  0  0  0  0  0  0  0  0  0  0
    4.1541   -1.0796    0.0000 H   0  0  0  0  0  0  0  0  0  0  0  0
    4.5981    0.3373    0.0000 H   0  0  0  0  0  0  0  0  0  0  0  0
    3.4220    0.9942    0.0000 H   0  0  0  0  0  0  0  0  0  0  0  0
    3.1951    0.1473    0.0000 H   0  0  0  0  0  0  0  0  0  0  0  0
    4.0420   -0.0796    0.0000 H   0  0  0  0  0  0  0  0  0  0  0  0
    4.2690    3.1473    0.0000 H   0  0  0  0  0  0  0  0  0  0  0  0
    4.8101    3.3747    0.0000 H   0  0  0  0  0  0  0  0  0  0  0  0
    5.2087    4.0650    0.0000 H   0  0  0  0  0  0  0  0  0  0  0  0
    3.1951    2.1473    0.0000 H   0  0  0  0  0  0  0  0  0  0  0  0
    4.3860    5.5399    0.0000 H   0  0  0  0  0  0  0  0  0  0  0  0
    3.9875    4.8496    0.0000 H   0  0  0  0  0  0  0  0  0  0  0  0
    5.7932    7.2673    0.0000 H   0  0  0  0  0  0  0  0  0  0  0  0
    6.7976    5.9824    0.0000 H   0  0  0  0  0  0  0  0  0  0  0  0
    7.5947    5.9824    0.0000 H   0  0  0  0  0  0  0  0  0  0  0  0
    4.9272    6.7673    0.0000 H   0  0  0  0  0  0  0  0  0  0  0  0
    8.4607    7.4322    0.0000 H   0  0  0  0  0  0  0  0  0  0  0  0
    7.6636    7.4322    0.0000 H   0  0  0  0  0  0  0  0  0  0  0  0
    2.3291    5.2673    0.0000 H   0  0  0  0  0  0  0  0  0  0  0  0
    7.1962    9.0773    0.0000 H   0  0  0  0  0  0  0  0  0  0  0  0
   10.3312    6.6473    0.0000 H   0  0  0  0  0  0  0  0  0  0  0  0
  1  8  1  0  0  0  0
  1  9  1  0  0  0  0
  1 10  1  0  0  0  0
  1 11  2  0  0  0  0
  2 30  1  0  0  0  0
  2 69  1  0  0  0  0
  3 35  1  0  0  0  0
  3 73  1  0  0  0  0
  4 36  2  0  0  0  0
  5 37  1  0  0  0  0
  5 74  1  0  0  0  0
  6 38  2  0  0  0  0
  7 39  1  0  0  0  0
  7 77  1  0  0  0  0
  8 40  1  0  0  0  0
  9 41  1  0  0  0  0
 10 78  1  0  0  0  0
 12 42  2  0  0  0  0
 13 49  1  0  0  0  0
 13 95  1  0  0  0  0
 14 48  2  0  0  0  0
 15 49  2  0  0  0  0
 16 52  1  0  0  0  0
 16 96  1  0  0  0  0
 17 52  2  0  0  0  0
 18 53  1  0  0  0  0
 18 97  1  0  0  0  0
 19 53  2  0  0  0  0
 20 25  1  0  0  0  0
 20 33  1  0  0  0  0
 20 34  1  0  0  0  0
 21 33  1  0  0  0  0
 21 38  1  0  0  0  0
 21 68  1  0  0  0  0
 22 36  1  0  0  0  0
 22 38  1  0  0  0  0
 22 71  1  0  0  0  0
 23 42  1  0  0  0  0
 23 44  1  0  0  0  0
 23 86  1  0  0  0  0
 24 47  1  0  0  0  0
 24 48  1  0  0  0  0
 24 92  1  0  0  0  0
 25 26  1  0  0  0  0
 25 27  1  0  0  0  0
 25 54  1  0  0  0  0
 26 28  1  0  0  0  0
 26 29  1  0  0  0  0
 26 55  1  0  0  0  0
 27 30  1  0  0  0  0
 27 56  1  0  0  0  0
 27 57  1  0  0  0  0
 28 31  1  0  0  0  0
 28 58  1  0  0  0  0
 28 59  1  0  0  0  0
 29 32  1  0  0  0  0
 29 60  1  0  0  0  0
 29 61  1  0  0  0  0
 30 31  1  0  0  0  0
 30 62  1  0  0  0  0
 31 63  1  0  0  0  0
 31 64  1  0  0  0  0
 32 33  2  0  0  0  0
 32 36  1  0  0  0  0
 34 35  1  0  0  0  0
 34 65  1  0  0  0  0
 34 66  1  0  0  0  0
 35 37  1  0  0  0  0
 35 67  1  0  0  0  0
 37 39  1  0  0  0  0
 37 70  1  0  0  0  0
 39 40  1  0  0  0  0
 39 72  1  0  0  0  0
 40 75  1  0  0  0  0
 40 76  1  0  0  0  0
 41 42  1  0  0  0  0
 41 43  1  0  0  0  0
 41 79  1  0  0  0  0
 43 80  1  0  0  0  0
 43 81  1  0  0  0  0
 43 82  1  0  0  0  0
 44 45  1  0  0  0  0
 44 49  1  0  0  0  0
 44 83  1  0  0  0  0
 45 46  1  0  0  0  0
 45 84  1  0  0  0  0
 45 85  1  0  0  0  0
 46 48  1  0  0  0  0
 46 87  1  0  0  0  0
 46 88  1  0  0  0  0
 47 50  1  0  0  0  0
 47 52  1  0  0  0  0
 47 89  1  0  0  0  0
 50 51  1  0  0  0  0
 50 90  1  0  0  0  0
 50 91  1  0  0  0  0
 51 53  1  0  0  0  0
 51 93  1  0  0  0  0
 51 94  1  0  0  0  0
M  END
> <PUBCHEM_COMPOUND_CID>
1067

> <PUBCHEM_COMPOUND_CANONICALIZED>
1

> <PUBCHEM_CACTVS_COMPLEXITY>
1510

> <PUBCHEM_CACTVS_HBOND_ACCEPTOR>
19

> <PUBCHEM_CACTVS_HBOND_DONOR>
12

> <PUBCHEM_CACTVS_ROTATABLE_BOND>
20

> <PUBCHEM_CACTVS_SUBSKEYS>
AAADcfB7vgIAAAAAAAAAAAAAAAAAAAAAAAAwQIAAAAAAAACwAAAAHgAQCCAADTzhgAYDCAPAAxCIQgHQWIKAAAAgAAAAAIHIAEiDEBIAgCAEQAAPlyKRAEH8/6OeAAAAAAAAAABAAAAEAAQAAAAAAAAAAA==

> <PUBCHEM_IUPAC_OPENEYE_NAME>
2-[[4-carboxy-4-[2-[hydroxy-[2,3,4-trihydroxy-5-(8-hydroxy-2,4-dioxo-1,5,5a,6,7,8,9,9a-octahydropyrimido[4,5-b]quinolin-10-yl)pentoxy]phosphoryl]oxypropanoylamino]butanoyl]amino]pentanedioic acid

> <PUBCHEM_IUPAC_CAS_NAME>
2-[[4-carboxy-4-[[2-[hydroxy-[2,3,4-trihydroxy-5-(8-hydroxy-2,4-dioxo-1,5,5a,6,7,8,9,9a-octahydropyrimido[4,5-b]quinolin-10-yl)pentoxy]phosphoryl]oxy-1-oxopropyl]amino]-1-oxobutyl]amino]pentanedioic acid

> <PUBCHEM_IUPAC_NAME_MARKUP>
2-[[4-carboxy-4-[2-[hydroxy-[2,3,4-trihydroxy-5-(8-hydroxy-2,4-dioxo-1,5,5<I>a</I>,6,7,8,9,9<I>a</I>-octahydropyrimido[4,5-b]quinolin-10-yl)pentoxy]phosphoryl]oxypropanoylamino]butanoyl]amino]pentanedioic acid

> <PUBCHEM_IUPAC_NAME>
2-[[4-carboxy-4-[2-[hydroxy-[2,3,4-trihydroxy-5-(8-hydroxy-2,4-dioxo-1,5,5a,6,7,8,9,9a-octahydropyrimido[4,5-b]quinolin-10-yl)pentoxy]phosphoryl]oxypropanoylamino]butanoyl]amino]pentanedioic acid

> <PUBCHEM_IUPAC_SYSTEMATIC_NAME>
2-[[5-oxidanyl-5-oxidanylidene-4-[2-[oxidanyl-[2,3,4-tris(oxidanyl)-5-[8-oxidanyl-2,4-bis(oxidanylidene)-1,5,5a,6,7,8,9,9a-octahydropyrimido[4,5-b]quinolin-10-yl]pentoxy]phosphoryl]oxypropanoylamino]pentanoyl]amino]pentanedioic acid

> <PUBCHEM_IUPAC_TRADITIONAL_NAME>
2-[[4-carboxy-4-[2-[hydroxy-[2,3,4-trihydroxy-5-(8-hydroxy-2,4-diketo-1,5,5a,6,7,8,9,9a-octahydropyrimido[4,5-b]quinolin-10-yl)pentoxy]phosphoryl]oxypropanoylamino]butanoyl]amino]glutaric acid

> <PUBCHEM_IUPAC_INCHI>
InChI=1S/C29H44N5O18P/c1-12(25(42)31-17(28(46)47)4-6-21(38)30-16(27(44)45)5-7-22(39)40)52-53(49,50)51-11-20(37)23(41)19(36)10-34-18-9-14(35)3-2-13(18)8-15-24(34)32-29(48)33-26(15)43/h12-14,16-20,23,35-37,41H,2-11H2,1H3,(H,30,38)(H,31,42)(H,39,40)(H,44,45)(H,46,47)(H,49,50)(H2,32,33,43,48)

> <PUBCHEM_IUPAC_INCHIKEY>
PBRJZMPOBGVLQS-UHFFFAOYSA-N

> <PUBCHEM_XLOGP3_AA>
-4.7

> <PUBCHEM_EXACT_MASS>
781.24189657

> <PUBCHEM_MOLECULAR_FORMULA>
C29H44N5O18P

> <PUBCHEM_MOLECULAR_WEIGHT>
781.7

> <PUBCHEM_SMILES>
CC(C(=O)NC(CCC(=O)NC(CCC(=O)O)C(=O)O)C(=O)O)OP(=O)(O)OCC(C(C(CN1C2CC(CCC2CC3=C1NC(=O)NC3=O)O)O)O)O

> <PUBCHEM_CONNECTIVITY_SMILES>
CC(C(=O)NC(CCC(=O)NC(CCC(=O)O)C(=O)O)C(=O)O)OP(=O)(O)OCC(C(C(CN1C2CC(CCC2CC3=C1NC(=O)NC3=O)O)O)O)O

> <PUBCHEM_CACTVS_TPSA>
368

> <PUBCHEM_MONOISOTOPIC_WEIGHT>
781.24189657

> <PUBCHEM_TOTAL_CHARGE>
0

> <PUBCHEM_HEAVY_ATOM_COUNT>
53

> <PUBCHEM_ATOM_DEF_STEREO_COUNT>
0

> <PUBCHEM_ATOM_UDEF_STEREO_COUNT>
9

> <PUBCHEM_BOND_DEF_STEREO_COUNT>
0

> <PUBCHEM_BOND_UDEF_STEREO_COUNT>
0

> <PUBCHEM_ISOTOPIC_ATOM_COUNT>
0

> <PUBCHEM_COMPONENT_COUNT>
1

> <PUBCHEM_CACTVS_TAUTO_COUNT>
-1

> <PUBCHEM_COORDINATE_TYPE>
1
5
255

> <PUBCHEM_BONDANNOTATIONS>
30  2  3
21  33  8
21  38  8
22  36  8
22  38  8
25  27  3
26  28  3
35  3  3
32  33  8
32  36  8
41  43  3
44  45  3
47  50  3
37  5  3
39  7  3

$$$$
