582
  -OEChem-08152602582D

122125  0     1  0  0  0  0  0999 V2000
    8.5991   -1.0000    0.0000 S   0  0  0  0  0  0  0  0  0  0  0  0
    9.4651   -0.5000    0.0000 S   0  0  0  0  0  0  0  0  0  0  0  0
    6.0010    2.5000    0.0000 O   0  0  0  0  0  0  0  0  0  0  0  0
   12.9292   -2.5000    0.0000 O   0  0  0  0  0  0  0  0  0  0  0  0
    4.2690    2.5000    0.0000 O   0  0  0  0  0  0  0  0  0  0  0  0
   14.6613   -2.5000    0.0000 O   0  0  0  0  0  0  0  0  0  0  0  0
    7.7331    3.5000    0.0000 O   0  0  0  0  0  0  0  0  0  0  0  0
    4.2690    3.5000    0.0000 O   0  0  0  0  0  0  0  0  0  0  0  0
   11.1972   -3.5000    0.0000 O   0  0  0  0  0  0  0  0  0  0  0  0
   14.6613   -3.5000    0.0000 O   0  0  0  0  0  0  0  0  0  0  0  0
    7.7331    5.5000    0.0000 O   0  0  0  0  0  0  0  0  0  0  0  0
    4.2690    5.5000    0.0000 O   0  0  0  0  0  0  0  0  0  0  0  0
   11.1972   -5.5000    0.0000 O   0  0  0  0  0  0  0  0  0  0  0  0
   14.6613   -5.5000    0.0000 O   0  0  0  0  0  0  0  0  0  0  0  0
    6.0010    6.5000    0.0000 O   0  0  0  0  0  0  0  0  0  0  0  0
   12.9292   -6.5000    0.0000 O   0  0  0  0  0  0  0  0  0  0  0  0
    4.2690   -0.5000    0.0000 O   0  0  0  0  0  0  0  0  0  0  0  0
   14.6613    0.5000    0.0000 O   0  0  0  0  0  0  0  0  0  0  0  0
    2.5369    0.5000    0.0000 O   0  0  0  0  0  0  0  0  0  0  0  0
   16.3933   -0.5000    0.0000 O   0  0  0  0  0  0  0  0  0  0  0  0
    2.5369    3.5000    0.0000 O   0  0  0  0  0  0  0  0  0  0  0  0
   17.2594   -2.0000    0.0000 O   0  0  0  0  0  0  0  0  0  0  0  0
    5.1350   -1.0000    0.0000 O   0  0  0  0  0  0  0  0  0  0  0  0
   12.0632   -2.0000    0.0000 O   0  0  0  0  0  0  0  0  0  0  0  0
    8.5991   -2.0000    0.0000 O   0  0  0  0  0  0  0  0  0  0  0  0
    9.4651    0.5000    0.0000 O   0  0  0  0  0  0  0  0  0  0  0  0
    6.0010    0.5000    0.0000 N   0  0  0  0  0  0  0  0  0  0  0  0
   12.9292   -0.5000    0.0000 N   0  0  0  0  0  0  0  0  0  0  0  0
    6.8671   -2.0000    0.0000 N   0  0  0  0  0  0  0  0  0  0  0  0
   11.1972    0.5000    0.0000 N   0  0  0  0  0  0  0  0  0  0  0  0
    6.0010    3.5000    0.0000 C   0  0  0  0  0  0  0  0  0  0  0  0
   12.9292   -3.5000    0.0000 C   0  0  0  0  0  0  0  0  0  0  0  0
    6.8671    4.0000    0.0000 C   0  0  3  0  0  0  0  0  0  0  0  0
    5.1350    4.0000    0.0000 C   0  0  3  0  0  0  0  0  0  0  0  0
   12.0632   -4.0000    0.0000 C   0  0  3  0  0  0  0  0  0  0  0  0
   13.7953   -4.0000    0.0000 C   0  0  3  0  0  0  0  0  0  0  0  0
    6.8671    5.0000    0.0000 C   0  0  3  0  0  0  0  0  0  0  0  0
    5.1350    5.0000    0.0000 C   0  0  3  0  0  0  0  0  0  0  0  0
   12.0632   -5.0000    0.0000 C   0  0  3  0  0  0  0  0  0  0  0  0
   13.7953   -5.0000    0.0000 C   0  0  3  0  0  0  0  0  0  0  0  0
    6.0010    5.5000    0.0000 C   0  0  0  0  0  0  0  0  0  0  0  0
   12.9292   -5.5000    0.0000 C   0  0  0  0  0  0  0  0  0  0  0  0
    5.1350    2.0000    0.0000 C   0  0  3  0  0  0  0  0  0  0  0  0
   13.7953   -2.0000    0.0000 C   0  0  3  0  0  0  0  0  0  0  0  0
    5.1350    1.0000    0.0000 C   0  0  3  0  0  0  0  0  0  0  0  0
   13.7953   -1.0000    0.0000 C   0  0  3  0  0  0  0  0  0  0  0  0
    4.2690    0.5000    0.0000 C   0  0  3  0  0  0  0  0  0  0  0  0
   14.6613   -0.5000    0.0000 C   0  0  3  0  0  0  0  0  0  0  0  0
    3.4030    1.0000    0.0000 C   0  0  3  0  0  0  0  0  0  0  0  0
   15.5273   -1.0000    0.0000 C   0  0  3  0  0  0  0  0  0  0  0  0
    3.4030    2.0000    0.0000 C   0  0  3  0  0  0  0  0  0  0  0  0
   15.5273   -2.0000    0.0000 C   0  0  3  0  0  0  0  0  0  0  0  0
    2.5369    2.5000    0.0000 C   0  0  0  0  0  0  0  0  0  0  0  0
   16.3933   -2.5000    0.0000 C   0  0  0  0  0  0  0  0  0  0  0  0
    6.0010   -0.5000    0.0000 C   0  0  0  0  0  0  0  0  0  0  0  0
   12.0632   -1.0000    0.0000 C   0  0  0  0  0  0  0  0  0  0  0  0
    6.8671   -1.0000    0.0000 C   0  0  3  0  0  0  0  0  0  0  0  0
   11.1972   -0.5000    0.0000 C   0  0  3  0  0  0  0  0  0  0  0  0
    7.7331   -0.5000    0.0000 C   0  0  0  0  0  0  0  0  0  0  0  0
   10.3312   -1.0000    0.0000 C   0  0  0  0  0  0  0  0  0  0  0  0
    7.7331   -2.5000    0.0000 C   0  0  0  0  0  0  0  0  0  0  0  0
   10.3312    1.0000    0.0000 C   0  0  0  0  0  0  0  0  0  0  0  0
    7.7331   -3.5000    0.0000 C   0  0  0  0  0  0  0  0  0  0  0  0
   10.3312    2.0000    0.0000 C   0  0  0  0  0  0  0  0  0  0  0  0
    6.5380    3.1900    0.0000 H   0  0  0  0  0  0  0  0  0  0  0  0
   12.3923   -3.1900    0.0000 H   0  0  0  0  0  0  0  0  0  0  0  0
    7.4040    4.3100    0.0000 H   0  0  0  0  0  0  0  0  0  0  0  0
    5.1350    3.3800    0.0000 H   0  0  0  0  0  0  0  0  0  0  0  0
   11.5263   -4.3100    0.0000 H   0  0  0  0  0  0  0  0  0  0  0  0
   14.3322   -4.3100    0.0000 H   0  0  0  0  0  0  0  0  0  0  0  0
    6.8671    5.6200    0.0000 H   0  0  0  0  0  0  0  0  0  0  0  0
    5.1350    5.6200    0.0000 H   0  0  0  0  0  0  0  0  0  0  0  0
   12.0632   -5.6200    0.0000 H   0  0  0  0  0  0  0  0  0  0  0  0
   13.7953   -5.6200    0.0000 H   0  0  0  0  0  0  0  0  0  0  0  0
    5.4641    5.8100    0.0000 H   0  0  0  0  0  0  0  0  0  0  0  0
   13.4662   -5.8100    0.0000 H   0  0  0  0  0  0  0  0  0  0  0  0
    5.1350    2.6200    0.0000 H   0  0  0  0  0  0  0  0  0  0  0  0
   13.7953   -2.6200    0.0000 H   0  0  0  0  0  0  0  0  0  0  0  0
    5.6720    1.3100    0.0000 H   0  0  0  0  0  0  0  0  0  0  0  0
   14.3322   -1.3100    0.0000 H   0  0  0  0  0  0  0  0  0  0  0  0
    4.8059    0.1900    0.0000 H   0  0  0  0  0  0  0  0  0  0  0  0
   14.1244   -0.1900    0.0000 H   0  0  0  0  0  0  0  0  0  0  0  0
    3.4030    0.3800    0.0000 H   0  0  0  0  0  0  0  0  0  0  0  0
   15.5273   -0.3800    0.0000 H   0  0  0  0  0  0  0  0  0  0  0  0
    3.4030    2.6200    0.0000 H   0  0  0  0  0  0  0  0  0  0  0  0
   15.5273   -2.6200    0.0000 H   0  0  0  0  0  0  0  0  0  0  0  0
    6.5380    0.8100    0.0000 H   0  0  0  0  0  0  0  0  0  0  0  0
   12.9292    0.1200    0.0000 H   0  0  0  0  0  0  0  0  0  0  0  0
    8.2700    3.8100    0.0000 H   0  0  0  0  0  0  0  0  0  0  0  0
    3.7320    3.8100    0.0000 H   0  0  0  0  0  0  0  0  0  0  0  0
   10.6603   -3.8100    0.0000 H   0  0  0  0  0  0  0  0  0  0  0  0
   15.1982   -3.8100    0.0000 H   0  0  0  0  0  0  0  0  0  0  0  0
    1.9264    2.6077    0.0000 H   0  0  0  0  0  0  0  0  0  0  0  0
    2.3249    1.9174    0.0000 H   0  0  0  0  0  0  0  0  0  0  0  0
   15.9948   -2.9750    0.0000 H   0  0  0  0  0  0  0  0  0  0  0  0
   16.7919   -2.9750    0.0000 H   0  0  0  0  0  0  0  0  0  0  0  0
    7.7331    6.1200    0.0000 H   0  0  0  0  0  0  0  0  0  0  0  0
    4.2690    6.1200    0.0000 H   0  0  0  0  0  0  0  0  0  0  0  0
   11.1972   -6.1200    0.0000 H   0  0  0  0  0  0  0  0  0  0  0  0
   14.6613   -6.1200    0.0000 H   0  0  0  0  0  0  0  0  0  0  0  0
    6.5380    6.8100    0.0000 H   0  0  0  0  0  0  0  0  0  0  0  0
   13.4662   -6.8100    0.0000 H   0  0  0  0  0  0  0  0  0  0  0  0
    3.7320   -0.8100    0.0000 H   0  0  0  0  0  0  0  0  0  0  0  0
   15.1982    0.8100    0.0000 H   0  0  0  0  0  0  0  0  0  0  0  0
    2.0000    0.8100    0.0000 H   0  0  0  0  0  0  0  0  0  0  0  0
   16.3933    0.1200    0.0000 H   0  0  0  0  0  0  0  0  0  0  0  0
    7.4040   -1.3100    0.0000 H   0  0  0  0  0  0  0  0  0  0  0  0
   11.7341   -0.1900    0.0000 H   0  0  0  0  0  0  0  0  0  0  0  0
    2.0000    3.8100    0.0000 H   0  0  0  0  0  0  0  0  0  0  0  0
   17.7963   -2.3100    0.0000 H   0  0  0  0  0  0  0  0  0  0  0  0
    8.1316   -0.0251    0.0000 H   0  0  0  0  0  0  0  0  0  0  0  0
    7.3346   -0.0251    0.0000 H   0  0  0  0  0  0  0  0  0  0  0  0
    9.9326   -1.4750    0.0000 H   0  0  0  0  0  0  0  0  0  0  0  0
   10.7297   -1.4750    0.0000 H   0  0  0  0  0  0  0  0  0  0  0  0
    6.3301   -2.3100    0.0000 H   0  0  0  0  0  0  0  0  0  0  0  0
   11.7341    0.8100    0.0000 H   0  0  0  0  0  0  0  0  0  0  0  0
    7.1131   -3.5000    0.0000 H   0  0  0  0  0  0  0  0  0  0  0  0
    7.7331   -4.1200    0.0000 H   0  0  0  0  0  0  0  0  0  0  0  0
    8.3531   -3.5000    0.0000 H   0  0  0  0  0  0  0  0  0  0  0  0
   10.9512    2.0000    0.0000 H   0  0  0  0  0  0  0  0  0  0  0  0
   10.3312    2.6200    0.0000 H   0  0  0  0  0  0  0  0  0  0  0  0
    9.7112    2.0000    0.0000 H   0  0  0  0  0  0  0  0  0  0  0  0
  1  2  1  0  0  0  0
  1 59  1  0  0  0  0
  2 60  1  0  0  0  0
  3 31  1  0  0  0  0
  3 43  1  0  0  0  0
  4 32  1  0  0  0  0
  4 44  1  0  0  0  0
  5 43  1  0  0  0  0
  5 51  1  0  0  0  0
  6 44  1  0  0  0  0
  6 52  1  0  0  0  0
  7 33  1  0  0  0  0
  7 89  1  0  0  0  0
  8 34  1  0  0  0  0
  8 90  1  0  0  0  0
  9 35  1  0  0  0  0
  9 91  1  0  0  0  0
 10 36  1  0  0  0  0
 10 92  1  0  0  0  0
 11 37  1  0  0  0  0
 11 97  1  0  0  0  0
 12 38  1  0  0  0  0
 12 98  1  0  0  0  0
 13 39  1  0  0  0  0
 13 99  1  0  0  0  0
 14 40  1  0  0  0  0
 14100  1  0  0  0  0
 15 41  1  0  0  0  0
 15101  1  0  0  0  0
 16 42  1  0  0  0  0
 16102  1  0  0  0  0
 17 47  1  0  0  0  0
 17103  1  0  0  0  0
 18 48  1  0  0  0  0
 18104  1  0  0  0  0
 19 49  1  0  0  0  0
 19105  1  0  0  0  0
 20 50  1  0  0  0  0
 20106  1  0  0  0  0
 21 53  1  0  0  0  0
 21109  1  0  0  0  0
 22 54  1  0  0  0  0
 22110  1  0  0  0  0
 23 55  2  0  0  0  0
 24 56  2  0  0  0  0
 25 61  2  0  0  0  0
 26 62  2  0  0  0  0
 27 45  1  0  0  0  0
 27 55  1  0  0  0  0
 27 87  1  0  0  0  0
 28 46  1  0  0  0  0
 28 56  1  0  0  0  0
 28 88  1  0  0  0  0
 29 57  1  0  0  0  0
 29 61  1  0  0  0  0
 29115  1  0  0  0  0
 30 58  1  0  0  0  0
 30 62  1  0  0  0  0
 30116  1  0  0  0  0
 31 33  1  0  0  0  0
 31 34  1  0  0  0  0
 31 65  1  0  0  0  0
 32 35  1  0  0  0  0
 32 36  1  0  0  0  0
 32 66  1  0  0  0  0
 33 37  1  0  0  0  0
 33 67  1  0  0  0  0
 34 38  1  0  0  0  0
 34 68  1  0  0  0  0
 35 39  1  0  0  0  0
 35 69  1  0  0  0  0
 36 40  1  0  0  0  0
 36 70  1  0  0  0  0
 37 41  1  0  0  0  0
 37 71  1  0  0  0  0
 38 41  1  0  0  0  0
 38 72  1  0  0  0  0
 39 42  1  0  0  0  0
 39 73  1  0  0  0  0
 40 42  1  0  0  0  0
 40 74  1  0  0  0  0
 41 75  1  0  0  0  0
 42 76  1  0  0  0  0
 43 45  1  0  0  0  0
 43 77  1  0  0  0  0
 44 46  1  0  0  0  0
 44 78  1  0  0  0  0
 45 47  1  0  0  0  0
 45 79  1  0  0  0  0
 46 48  1  0  0  0  0
 46 80  1  0  0  0  0
 47 49  1  0  0  0  0
 47 81  1  0  0  0  0
 48 50  1  0  0  0  0
 48 82  1  0  0  0  0
 49 51  1  0  0  0  0
 49 83  1  0  0  0  0
 50 52  1  0  0  0  0
 50 84  1  0  0  0  0
 51 53  1  0  0  0  0
 51 85  1  0  0  0  0
 52 54  1  0  0  0  0
 52 86  1  0  0  0  0
 53 93  1  0  0  0  0
 53 94  1  0  0  0  0
 54 95  1  0  0  0  0
 54 96  1  0  0  0  0
 55 57  1  0  0  0  0
 56 58  1  0  0  0  0
 57 59  1  0  0  0  0
 57107  1  0  0  0  0
 58 60  1  0  0  0  0
 58108  1  0  0  0  0
 59111  1  0  0  0  0
 59112  1  0  0  0  0
 60113  1  0  0  0  0
 60114  1  0  0  0  0
 61 63  1  0  0  0  0
 62 64  1  0  0  0  0
 63117  1  0  0  0  0
 63118  1  0  0  0  0
 63119  1  0  0  0  0
 64120  1  0  0  0  0
 64121  1  0  0  0  0
 64122  1  0  0  0  0
M  END
> <PUBCHEM_COMPOUND_CID>
582

> <PUBCHEM_COMPOUND_CANONICALIZED>
1

> <PUBCHEM_CACTVS_COMPLEXITY>
1420

> <PUBCHEM_CACTVS_HBOND_ACCEPTOR>
26

> <PUBCHEM_CACTVS_HBOND_DONOR>
20

> <PUBCHEM_CACTVS_ROTATABLE_BOND>
17

> <PUBCHEM_CACTVS_SUBSKEYS>
AAADcfB/vgBgAAAAAAAAAAAAAAAAAAAAAAA0aIEAAAAAAAAAAAAAHgQQCAAACDz1wAeCCALABgAIAAEQEAAAAAAAAAAAAIGIAAATUAIAgCA3QAAHFgCXAAHwcA8AAAAAAAAAAAACAAAQAACAAAAAAAAAAA==

> <PUBCHEM_IUPAC_OPENEYE_NAME>
2-acetamido-3-[[2-acetamido-3-[[4,5-dihydroxy-6-(hydroxymethyl)-2-(2,3,4,5,6-pentahydroxycyclohexoxy)tetrahydropyran-3-yl]amino]-3-oxo-propyl]disulfanyl]-N-[4,5-dihydroxy-6-(hydroxymethyl)-2-(2,3,4,5,6-pentahydroxycyclohexoxy)tetrahydropyran-3-yl]propanamide

> <PUBCHEM_IUPAC_CAS_NAME>
2-acetamido-3-[[2-acetamido-3-[[4,5-dihydroxy-6-(hydroxymethyl)-2-(2,3,4,5,6-pentahydroxycyclohexyl)oxy-3-oxanyl]amino]-3-oxopropyl]disulfanyl]-N-[4,5-dihydroxy-6-(hydroxymethyl)-2-(2,3,4,5,6-pentahydroxycyclohexyl)oxy-3-oxanyl]propanamide

> <PUBCHEM_IUPAC_NAME_MARKUP>
2-acetamido-3-[[2-acetamido-3-[[4,5-dihydroxy-6-(hydroxymethyl)-2-(2,3,4,5,6-pentahydroxycyclohexyl)oxyoxan-3-yl]amino]-3-oxopropyl]disulfanyl]-<I>N</I>-[4,5-dihydroxy-6-(hydroxymethyl)-2-(2,3,4,5,6-pentahydroxycyclohexyl)oxyoxan-3-yl]propanamide

> <PUBCHEM_IUPAC_NAME>
2-acetamido-3-[[2-acetamido-3-[[4,5-dihydroxy-6-(hydroxymethyl)-2-(2,3,4,5,6-pentahydroxycyclohexyl)oxyoxan-3-yl]amino]-3-oxopropyl]disulfanyl]-N-[4,5-dihydroxy-6-(hydroxymethyl)-2-(2,3,4,5,6-pentahydroxycyclohexyl)oxyoxan-3-yl]propanamide

> <PUBCHEM_IUPAC_SYSTEMATIC_NAME>
2-acetamido-3-[[2-acetamido-3-[[6-(hydroxymethyl)-4,5-bis(oxidanyl)-2-[2,3,4,5,6-pentakis(oxidanyl)cyclohexyl]oxy-oxan-3-yl]amino]-3-oxidanylidene-propyl]disulfanyl]-N-[6-(hydroxymethyl)-4,5-bis(oxidanyl)-2-[2,3,4,5,6-pentakis(oxidanyl)cyclohexyl]oxy-oxan-3-yl]propanamide

> <PUBCHEM_IUPAC_TRADITIONAL_NAME>
2-acetamido-3-[[2-acetamido-3-[[4,5-dihydroxy-6-methylol-2-(2,3,4,5,6-pentahydroxycyclohexoxy)tetrahydropyran-3-yl]amino]-3-keto-propyl]disulfanyl]-N-[4,5-dihydroxy-6-methylol-2-(2,3,4,5,6-pentahydroxycyclohexoxy)tetrahydropyran-3-yl]propionamide

> <PUBCHEM_IUPAC_INCHI>
InChI=1S/C34H58N4O24S2/c1-7(41)35-9(31(57)37-13-17(45)15(43)11(3-39)59-33(13)61-29-25(53)21(49)19(47)22(50)26(29)54)5-63-64-6-10(36-8(2)42)32(58)38-14-18(46)16(44)12(4-40)60-34(14)62-30-27(55)23(51)20(48)24(52)28(30)56/h9-30,33-34,39-40,43-56H,3-6H2,1-2H3,(H,35,41)(H,36,42)(H,37,57)(H,38,58)

> <PUBCHEM_IUPAC_INCHIKEY>
YKSIHFDRGQQOCJ-UHFFFAOYSA-N

> <PUBCHEM_XLOGP3_AA>
-11.4

> <PUBCHEM_EXACT_MASS>
970.28824108

> <PUBCHEM_MOLECULAR_FORMULA>
C34H58N4O24S2

> <PUBCHEM_MOLECULAR_WEIGHT>
971.0

> <PUBCHEM_SMILES>
CC(=O)NC(CSSCC(C(=O)NC1C(C(C(OC1OC2C(C(C(C(C2O)O)O)O)O)CO)O)O)NC(=O)C)C(=O)NC3C(C(C(OC3OC4C(C(C(C(C4O)O)O)O)O)CO)O)O

> <PUBCHEM_CONNECTIVITY_SMILES>
CC(=O)NC(CSSCC(C(=O)NC1C(C(C(OC1OC2C(C(C(C(C2O)O)O)O)O)CO)O)O)NC(=O)C)C(=O)NC3C(C(C(OC3OC4C(C(C(C(C4O)O)O)O)O)CO)O)O

> <PUBCHEM_CACTVS_TPSA>
528

> <PUBCHEM_MONOISOTOPIC_WEIGHT>
970.28824108

> <PUBCHEM_TOTAL_CHARGE>
0

> <PUBCHEM_HEAVY_ATOM_COUNT>
64

> <PUBCHEM_ATOM_DEF_STEREO_COUNT>
0

> <PUBCHEM_ATOM_UDEF_STEREO_COUNT>
20

> <PUBCHEM_BOND_DEF_STEREO_COUNT>
0

> <PUBCHEM_BOND_UDEF_STEREO_COUNT>
0

> <PUBCHEM_ISOTOPIC_ATOM_COUNT>
0

> <PUBCHEM_COMPONENT_COUNT>
1

> <PUBCHEM_CACTVS_TAUTO_COUNT>
-1

> <PUBCHEM_COORDINATE_TYPE>
1
5
255

> <PUBCHEM_BONDANNOTATIONS>
36  10  3
37  11  3
38  12  3
39  13  3
40  14  3
47  17  3
48  18  3
49  19  3
50  20  3
45  27  3
46  28  3
43  3  3
44  4  3
51  53  3
52  54  3
57  59  3
58  60  3
33  7  3
34  8  3
35  9  3

$$$$
