24
  -OEChem-08152602162D

 39 40  0     1  0  0  0  0  0999 V2000
    5.1200   -1.1365    0.0000 O   0  0  0  0  0  0  0  0  0  0  0  0
    4.7540    1.2295    0.0000 O   0  0  0  0  0  0  0  0  0  0  0  0
    6.4860   -1.7705    0.0000 O   0  0  0  0  0  0  0  0  0  0  0  0
    4.1200    0.5955    0.0000 O   0  0  0  0  0  0  0  0  0  0  0  0
    6.4860    2.2295    0.0000 O   0  0  0  0  0  0  0  0  0  0  0  0
    4.6200   -2.0026    0.0000 O   0  0  0  0  0  0  0  0  0  0  0  0
    8.2344   -1.8051    0.0000 O   0  0  0  0  0  0  0  0  0  0  0  0
    2.6200   -2.0026    0.0000 O   0  0  0  0  0  0  0  0  0  0  0  0
    6.4860   -0.7705    0.0000 N   0  0  3  0  0  0  0  0  0  0  0  0
    6.4860    1.2295    0.0000 N   0  0  3  0  0  0  0  0  0  0  0  0
    8.2460    1.2642    0.0000 N   0  0  0  0  0  0  0  0  0  0  0  0
    9.1521   -0.2913    0.0000 N   0  0  0  0  0  0  0  0  0  0  0  0
   10.0162    1.2536    0.0000 N   0  0  0  0  0  0  0  0  0  0  0  0
    5.6200   -0.2705    0.0000 C   0  0  3  0  0  0  0  0  0  0  0  0
    7.3520   -0.2705    0.0000 C   0  0  3  0  0  0  0  0  0  0  0  0
    5.6200    0.7295    0.0000 C   0  0  3  0  0  0  0  0  0  0  0  0
    7.3520    0.7295    0.0000 C   0  0  3  0  0  0  0  0  0  0  0  0
    4.6200   -0.2705    0.0000 C   0  0  3  0  0  0  0  0  0  0  0  0
    4.1200   -1.1365    0.0000 C   0  0  3  0  0  0  0  0  0  0  0  0
    8.2460   -0.8052    0.0000 C   0  0  0  0  0  0  0  0  0  0  0  0
    3.1200   -1.1365    0.0000 C   0  0  0  0  0  0  0  0  0  0  0  0
    9.1521    0.7503    0.0000 C   0  0  0  0  0  0  0  0  0  0  0  0
    7.3473   -0.8905    0.0000 H   0  0  0  0  0  0  0  0  0  0  0  0
    5.6200    1.3495    0.0000 H   0  0  0  0  0  0  0  0  0  0  0  0
    7.3473    1.3495    0.0000 H   0  0  0  0  0  0  0  0  0  0  0  0
    4.0000   -0.2705    0.0000 H   0  0  0  0  0  0  0  0  0  0  0  0
    4.7400   -1.1365    0.0000 H   0  0  0  0  0  0  0  0  0  0  0  0
    5.4300   -1.6735    0.0000 H   0  0  0  0  0  0  0  0  0  0  0  0
    4.7540    1.8495    0.0000 H   0  0  0  0  0  0  0  0  0  0  0  0
    3.2277   -0.5260    0.0000 H   0  0  0  0  0  0  0  0  0  0  0  0
    2.5374   -0.9245    0.0000 H   0  0  0  0  0  0  0  0  0  0  0  0
    9.6878   -0.6034    0.0000 H   0  0  0  0  0  0  0  0  0  0  0  0
    7.0230   -2.0805    0.0000 H   0  0  0  0  0  0  0  0  0  0  0  0
    3.5000    0.5955    0.0000 H   0  0  0  0  0  0  0  0  0  0  0  0
    7.0230    2.5395    0.0000 H   0  0  0  0  0  0  0  0  0  0  0  0
    4.3100   -2.5395    0.0000 H   0  0  0  0  0  0  0  0  0  0  0  0
   10.0138    1.8736    0.0000 H   0  0  0  0  0  0  0  0  0  0  0  0
   10.5543    0.9457    0.0000 H   0  0  0  0  0  0  0  0  0  0  0  0
    2.0000   -2.0026    0.0000 H   0  0  0  0  0  0  0  0  0  0  0  0
  1 14  1  0  0  0  0
  1 28  1  0  0  0  0
  2 16  1  0  0  0  0
  2 29  1  0  0  0  0
  3  9  1  0  0  0  0
  3 33  1  0  0  0  0
  4 18  1  0  0  0  0
  4 34  1  0  0  0  0
  5 10  1  0  0  0  0
  5 35  1  0  0  0  0
  6 19  1  0  0  0  0
  6 36  1  0  0  0  0
  7 20  2  0  0  0  0
  8 21  1  0  0  0  0
  8 39  1  0  0  0  0
  9 14  1  0  0  0  0
  9 15  1  0  0  0  0
 10 16  1  0  0  0  0
 10 17  1  0  0  0  0
 11 17  1  0  0  0  0
 11 22  2  0  0  0  0
 12 20  1  0  0  0  0
 12 22  1  0  0  0  0
 12 32  1  0  0  0  0
 13 22  1  0  0  0  0
 13 37  1  0  0  0  0
 13 38  1  0  0  0  0
 14 16  1  0  0  0  0
 14 18  1  0  0  0  0
 15 17  1  0  0  0  0
 15 20  1  0  0  0  0
 15 23  1  0  0  0  0
 16 24  1  0  0  0  0
 17 25  1  0  0  0  0
 18 19  1  0  0  0  0
 18 26  1  0  0  0  0
 19 21  1  0  0  0  0
 19 27  1  0  0  0  0
 21 30  1  0  0  0  0
 21 31  1  0  0  0  0
M  END
> <PUBCHEM_COMPOUND_CID>
24

> <PUBCHEM_COMPOUND_CANONICALIZED>
1

> <PUBCHEM_CACTVS_COMPLEXITY>
491

> <PUBCHEM_CACTVS_HBOND_ACCEPTOR>
11

> <PUBCHEM_CACTVS_HBOND_DONOR>
9

> <PUBCHEM_CACTVS_ROTATABLE_BOND>
3

> <PUBCHEM_CACTVS_SUBSKEYS>
AAADceBzvAAAAAAAAAAAAAAAAAAAAAAAAAAsQAAAAAAAAACAAAAAHgAUCAAACDzhgAYBAALQAgAoAAEQNAAAAAEAAAAhAAGIAACDUAoAyCAUQAAHEQKRAADwMAIAAAAAAAAAAAAAAAAAAAAAAAAAAAAAAA==

> <PUBCHEM_IUPAC_OPENEYE_NAME>
2-amino-5,6,7,8-tetrahydroxy-6-(1,2,3-trihydroxypropyl)-3,4a,7,8a-tetrahydropteridin-4-one

> <PUBCHEM_IUPAC_CAS_NAME>
2-amino-5,6,7,8-tetrahydroxy-6-(1,2,3-trihydroxypropyl)-3,4a,7,8a-tetrahydropteridin-4-one

> <PUBCHEM_IUPAC_NAME_MARKUP>
2-amino-5,6,7,8-tetrahydroxy-6-(1,2,3-trihydroxypropyl)-3,4<I>a</I>,7,8<I>a</I>-tetrahydropteridin-4-one

> <PUBCHEM_IUPAC_NAME>
2-amino-5,6,7,8-tetrahydroxy-6-(1,2,3-trihydroxypropyl)-3,4a,7,8a-tetrahydropteridin-4-one

> <PUBCHEM_IUPAC_SYSTEMATIC_NAME>
2-azanyl-5,6,7,8-tetrakis(oxidanyl)-6-[1,2,3-tris(oxidanyl)propyl]-3,4a,7,8a-tetrahydropteridin-4-one

> <PUBCHEM_IUPAC_TRADITIONAL_NAME>
2-amino-5,6,7,8-tetrahydroxy-6-(1,2,3-trihydroxypropyl)-3,4a,7,8a-tetrahydropteridin-4-one

> <PUBCHEM_IUPAC_INCHI>
InChI=1S/C9H17N5O8/c10-8-11-5-3(6(18)12-8)14(22)9(20,7(19)13(5)21)4(17)2(16)1-15/h2-5,7,15-17,19-22H,1H2,(H3,10,11,12,18)

> <PUBCHEM_IUPAC_INCHIKEY>
SQDFRPSZAQYREW-UHFFFAOYSA-N

> <PUBCHEM_XLOGP3_AA>
-4.5

> <PUBCHEM_EXACT_MASS>
323.10771252

> <PUBCHEM_MOLECULAR_FORMULA>
C9H17N5O8

> <PUBCHEM_MOLECULAR_WEIGHT>
323.26

> <PUBCHEM_SMILES>
C(C(C(C1(C(N(C2C(N1O)C(=O)NC(=N2)N)O)O)O)O)O)O

> <PUBCHEM_CONNECTIVITY_SMILES>
C(C(C(C1(C(N(C2C(N1O)C(=O)NC(=N2)N)O)O)O)O)O)O

> <PUBCHEM_CACTVS_TPSA>
216

> <PUBCHEM_MONOISOTOPIC_WEIGHT>
323.10771252

> <PUBCHEM_TOTAL_CHARGE>
0

> <PUBCHEM_HEAVY_ATOM_COUNT>
22

> <PUBCHEM_ATOM_DEF_STEREO_COUNT>
0

> <PUBCHEM_ATOM_UDEF_STEREO_COUNT>
6

> <PUBCHEM_BOND_DEF_STEREO_COUNT>
0

> <PUBCHEM_BOND_UDEF_STEREO_COUNT>
0

> <PUBCHEM_ISOTOPIC_ATOM_COUNT>
0

> <PUBCHEM_COMPONENT_COUNT>
1

> <PUBCHEM_CACTVS_TAUTO_COUNT>
-1

> <PUBCHEM_COORDINATE_TYPE>
1
5
255

> <PUBCHEM_BONDANNOTATIONS>
14  1  3
17  10  3
15  20  3
16  2  3
18  4  3
19  6  3

$$$$
