1026
  -OEChem-08152603373D

 39 41  0     1  0  0  0  0  0999 V2000
   -2.5740   -1.8302    0.4342 P   0  0  1  0  0  0  0  0  0  0  0  0
   -1.8031   -0.4171    0.5957 O   0  0  0  0  0  0  0  0  0  0  0  0
   -4.1196   -1.3902    0.2421 O   0  0  0  0  0  0  0  0  0  0  0  0
   -1.5021    2.8680   -0.8962 O   0  0  0  0  0  0  0  0  0  0  0  0
   -4.0294    1.4250    0.8884 O   0  0  0  0  0  0  0  0  0  0  0  0
   -2.1328   -2.3640   -1.0285 O   0  0  0  0  0  0  0  0  0  0  0  0
    1.0815   -1.6843   -0.9962 O   0  0  0  0  0  0  0  0  0  0  0  0
   -2.3418   -2.8094    1.5474 O   0  0  0  0  0  0  0  0  0  0  0  0
    0.7960    1.0439   -1.0092 N   0  0  0  0  0  0  0  0  0  0  0  0
    2.2666    1.4458    1.2708 N   0  0  0  0  0  0  0  0  0  0  0  0
    4.3185    0.5234    0.2325 N   0  0  0  0  0  0  0  0  0  0  0  0
    3.2429   -1.5176   -0.2204 N   0  0  0  0  0  0  0  0  0  0  0  0
    5.4818   -1.4903    0.4219 N   0  0  0  0  0  0  0  0  0  0  0  0
   -2.0903    0.6233   -0.3380 C   0  0  2  0  0  0  0  0  0  0  0  0
   -1.2755    1.8444    0.0666 C   0  0  1  0  0  0  0  0  0  0  0  0
    2.1483    0.4911   -1.0042 C   0  0  1  0  0  0  0  0  0  0  0  0
   -3.5995    0.9049   -0.3700 C   0  0  1  0  0  0  0  0  0  0  0  0
    0.1863    1.5365    0.1321 C   0  0  0  0  0  0  0  0  0  0  0  0
    3.0312    1.2048    0.0445 C   0  0  1  0  0  0  0  0  0  0  0  0
   -4.4189   -0.3469   -0.6800 C   0  0  0  0  0  0  0  0  0  0  0  0
    0.9195    1.7037    1.2458 C   0  0  0  0  0  0  0  0  0  0  0  0
    2.0642   -0.9972   -0.7284 C   0  0  0  0  0  0  0  0  0  0  0  0
    4.3503   -0.7676    0.1490 C   0  0  0  0  0  0  0  0  0  0  0  0
   -1.7969    0.2827   -1.3381 H   0  0  0  0  0  0  0  0  0  0  0  0
   -1.6131    2.2251    1.0377 H   0  0  0  0  0  0  0  0  0  0  0  0
    2.5918    0.6037   -2.0013 H   0  0  0  0  0  0  0  0  0  0  0  0
   -3.8187    1.6680   -1.1253 H   0  0  0  0  0  0  0  0  0  0  0  0
    3.2675    2.1963   -0.3643 H   0  0  0  0  0  0  0  0  0  0  0  0
    0.2266    0.9221   -1.8392 H   0  0  0  0  0  0  0  0  0  0  0  0
   -5.4895   -0.1377   -0.5908 H   0  0  0  0  0  0  0  0  0  0  0  0
   -4.2268   -0.7045   -1.6963 H   0  0  0  0  0  0  0  0  0  0  0  0
    0.5179    2.0569    2.1868 H   0  0  0  0  0  0  0  0  0  0  0  0
    2.7673    1.6489    2.1291 H   0  0  0  0  0  0  0  0  0  0  0  0
   -1.2324    2.5350   -1.7691 H   0  0  0  0  0  0  0  0  0  0  0  0
    3.3067   -2.5276   -0.1320 H   0  0  0  0  0  0  0  0  0  0  0  0
   -4.9768    1.6307    0.8137 H   0  0  0  0  0  0  0  0  0  0  0  0
   -2.2662   -1.8032   -1.8212 H   0  0  0  0  0  0  0  0  0  0  0  0
    5.4934   -2.5020    0.3519 H   0  0  0  0  0  0  0  0  0  0  0  0
    6.3426   -1.0325    0.7010 H   0  0  0  0  0  0  0  0  0  0  0  0
  1  2  1  0  0  0  0
  1  3  1  0  0  0  0
  1  6  1  0  0  0  0
  1  8  2  0  0  0  0
  2 14  1  0  0  0  0
  3 20  1  0  0  0  0
  4 15  1  0  0  0  0
  4 34  1  0  0  0  0
  5 17  1  0  0  0  0
  5 36  1  0  0  0  0
  6 37  1  0  0  0  0
  7 22  2  0  0  0  0
  9 16  1  0  0  0  0
  9 18  1  0  0  0  0
  9 29  1  0  0  0  0
 10 19  1  0  0  0  0
 10 21  1  0  0  0  0
 10 33  1  0  0  0  0
 11 19  1  0  0  0  0
 11 23  2  0  0  0  0
 12 22  1  0  0  0  0
 12 23  1  0  0  0  0
 12 35  1  0  0  0  0
 13 23  1  0  0  0  0
 13 38  1  0  0  0  0
 13 39  1  0  0  0  0
 14 15  1  0  0  0  0
 14 17  1  0  0  0  0
 14 24  1  0  0  0  0
 15 18  1  0  0  0  0
 15 25  1  0  0  0  0
 16 19  1  0  0  0  0
 16 22  1  0  0  0  0
 16 26  1  0  0  0  0
 17 20  1  0  0  0  0
 17 27  1  0  0  0  0
 18 21  2  0  0  0  0
 19 28  1  0  0  0  0
 20 30  1  0  0  0  0
 20 31  1  0  0  0  0
 21 32  1  0  0  0  0
M  END
> <PUBCHEM_COMPOUND_CID>
1026

> <PUBCHEM_CONFORMER_RMSD>
0.8

> <PUBCHEM_CONFORMER_DIVERSEORDER>
100
157
343
503
54
140
331
565
35
500
532
82
78
627
648
69
490
335
552
111
91
610
368
589
55
456
445
66
4
646
528
511
203
152
590
465
154
606
49
653
253
12
75
250
441
387
47
507
155
417
595
291
18
613
121
257
114
459
499
636
231
574
187
150
661
621
318
31
207
137
458
255
376
538
479
51
14
404
116
419
588
175
320
412
16
651
52
310
22
420
657
596
105
89
204
92
252
211
351
354
2
383
15
9
576
584
169
196
138
228
605
450
184
592
63
164
246
224
317
400
654
352
462
240
161
176
237
106
8
328
298
123
21
198
425
225
647
209
531
126
128
141
10
365
513
540
174
379
414
582
57
222
287
440
205
245
431
467
64
248
474
6
288
385
630
556
134
37
99
1
407
206
173
563
380
315
236
296
50
119
659
179
221
60
3
98
301
23
20
146
603
11
452
281
341
32
642
491
263
159
309
212
5
108
133
521
585
42
188
162
153
366
481
283
58
299
171
601
95
277
191
208
329
656

> <PUBCHEM_MMFF94_PARTIAL_CHARGES>
32
1 1.51
10 -0.87
11 -0.7
12 -0.49
13 -0.85
14 0.28
15 0.42
16 0.43
17 0.28
18 -0.04
19 0.62
2 -0.55
20 0.28
21 -0.05
22 0.57
23 0.56
29 0.4
3 -0.55
32 0.15
33 0.4
34 0.4
35 0.37
36 0.4
37 0.5
38 0.4
39 0.4
4 -0.68
5 -0.68
6 -0.77
7 -0.57
8 -0.7
9 -0.87

> <PUBCHEM_EFFECTIVE_ROTOR_COUNT>
3.6

> <PUBCHEM_PHARMACOPHORE_FEATURES>
16
1 10 cation
1 10 donor
1 12 donor
1 13 donor
1 4 acceptor
1 4 donor
1 5 acceptor
1 5 donor
1 6 acceptor
1 7 acceptor
1 8 acceptor
1 9 cation
1 9 donor
6 1 2 3 14 17 20 rings
6 11 12 16 19 22 23 rings
6 9 10 16 18 19 21 rings

> <PUBCHEM_HEAVY_ATOM_COUNT>
23

> <PUBCHEM_ATOM_DEF_STEREO_COUNT>
0

> <PUBCHEM_ATOM_UDEF_STEREO_COUNT>
5

> <PUBCHEM_BOND_DEF_STEREO_COUNT>
0

> <PUBCHEM_BOND_UDEF_STEREO_COUNT>
0

> <PUBCHEM_ISOTOPIC_ATOM_COUNT>
0

> <PUBCHEM_COMPONENT_COUNT>
1

> <PUBCHEM_CACTVS_TAUTO_COUNT>
5

> <PUBCHEM_CONFORMER_ID>
0000040200000064

> <PUBCHEM_MMFF94_ENERGY>
41.9852

> <PUBCHEM_FEATURE_SELFOVERLAP>
81.349

> <PUBCHEM_SHAPE_FINGERPRINT>
10366900 7 18344144799842367180
10616163 171 18340210790082096279
10759866 29 18188782785152191604
11045977 3 18201994413744905352
12506688 2 18272093815880401144
12553582 1 18337975435962282421
12596599 1 16916236609544084023
12633257 1 18202009793468969569
13140716 1 18411426141096562619
13402501 40 18413387626917521031
14115302 16 18187653500246818485
14251745 187 18410289241762709378
14790565 3 17475228484979505528
15196674 1 18412544318641689918
16752209 62 17895740817231850789
17834072 14 18341895190388000314
1813 80 17603302682593853325
18186145 218 14346084152219071372
19141452 34 18412547591924026393
19862831 5 16443065001772036553
200 152 17632289077856762773
20261772 1 17989201577482551310
20281475 54 18410860983588557925
221490 88 18337957887094968040
23402539 116 18334570201116755669
23559900 14 18409161138933841080
26918003 58 18271803476096576576
4921388 177 16950572128960656675
5104073 3 18342740723535869960
568465 68 17846499236030883328
8809292 202 18409731746364954096
9709674 26 18341337699348620510

> <PUBCHEM_SHAPE_MULTIPOLES>
411.19
9.04
2.76
1.12
3.49
0.46
-0.13
3.24
-0.66
-1.27
-0.27
-0.16
0.06
0.59

> <PUBCHEM_SHAPE_SELFOVERLAP>
859.823

> <PUBCHEM_SHAPE_VOLUME>
232

> <PUBCHEM_COORDINATE_TYPE>
2
5
10

$$$$
