493
  -OEChem-08152602512D

 82 85  0     1  0  0  0  0  0999 V2000
    7.2500   -1.2678    0.0000 P   0  0  3  0  0  0  0  0  0  0  0  0
    8.4090   -2.5550    0.0000 P   0  0  3  0  0  0  0  0  0  0  0  0
    4.9696    1.4043    0.0000 O   0  0  0  0  0  0  0  0  0  0  0  0
   11.3280   -3.5633    0.0000 O   0  0  0  0  0  0  0  0  0  0  0  0
    7.5468    1.6361    0.0000 O   0  0  0  0  0  0  0  0  0  0  0  0
    6.4590    3.5202    0.0000 O   0  0  0  0  0  0  0  0  0  0  0  0
    7.0421   -0.2896    0.0000 O   0  0  0  0  0  0  0  0  0  0  0  0
   10.2402   -5.9112    0.0000 O   0  0  0  0  0  0  0  0  0  0  0  0
   12.4158   -5.9112    0.0000 O   0  0  0  0  0  0  0  0  0  0  0  0
    9.3600   -2.8640    0.0000 O   0  0  0  0  0  0  0  0  0  0  0  0
    7.4579   -2.2459    0.0000 O   0  0  0  0  0  0  0  0  0  0  0  0
    6.2718   -1.4757    0.0000 O   0  0  0  0  0  0  0  0  0  0  0  0
    8.7180   -1.6039    0.0000 O   0  0  0  0  0  0  0  0  0  0  0  0
    8.2281   -1.0599    0.0000 O   0  0  0  0  0  0  0  0  0  0  0  0
    8.0999   -3.5060    0.0000 O   0  0  0  0  0  0  0  0  0  0  0  0
   12.6413    2.3869    0.0000 O   0  0  0  0  0  0  0  0  0  0  0  0
   10.9471    2.7470    0.0000 O   0  0  0  0  0  0  0  0  0  0  0  0
    4.3309    3.0679    0.0000 N   0  0  0  0  0  0  0  0  0  0  0  0
   13.0881   -3.8421    0.0000 N   0  0  0  0  0  0  0  0  0  0  0  0
    2.8595    3.7200    0.0000 N   0  0  0  0  0  0  0  0  0  0  0  0
    5.2437    4.6456    0.0000 N   0  0  0  0  0  0  0  0  0  0  0  0
   12.5528   -2.1948    0.0000 N   0  0  0  0  0  0  0  0  0  0  0  0
    4.2232    6.0451    0.0000 N   0  0  0  0  0  0  0  0  0  0  0  0
   14.2470   -2.5550    0.0000 N   0  0  0  0  0  0  0  0  0  0  0  0
    2.5010    5.8611    0.0000 N   0  0  0  0  0  0  0  0  0  0  0  0
   10.5313    0.7907    0.0000 N   0  0  0  0  0  0  0  0  0  0  0  0
    6.5522    1.7407    0.0000 C   0  0  3  0  0  0  0  0  0  0  0  0
    6.0522    2.6067    0.0000 C   0  0  3  0  0  0  0  0  0  0  0  0
    5.8831    0.9975    0.0000 C   0  0  3  0  0  0  0  0  0  0  0  0
    5.0741    2.3988    0.0000 C   0  0  3  0  0  0  0  0  0  0  0  0
   10.8280   -5.1022    0.0000 C   0  0  3  0  0  0  0  0  0  0  0  0
   10.5190   -4.1511    0.0000 C   0  0  3  0  0  0  0  0  0  0  0  0
   11.8280   -5.1022    0.0000 C   0  0  3  0  0  0  0  0  0  0  0  0
   12.1370   -4.1511    0.0000 C   0  0  3  0  0  0  0  0  0  0  0  0
    6.0910    0.0194    0.0000 C   0  0  0  0  0  0  0  0  0  0  0  0
    9.5679   -3.8421    0.0000 C   0  0  0  0  0  0  0  0  0  0  0  0
    4.4357    4.0565    0.0000 C   0  0  0  0  0  0  0  0  0  0  0  0
    3.3588    2.8604    0.0000 C   0  0  0  0  0  0  0  0  0  0  0  0
    3.5215    4.4616    0.0000 C   0  0  0  0  0  0  0  0  0  0  0  0
   13.2960   -2.8640    0.0000 C   0  0  0  0  0  0  0  0  0  0  0  0
    3.4152    5.4560    0.0000 C   0  0  0  0  0  0  0  0  0  0  0  0
    5.1374    5.6400    0.0000 C   0  0  0  0  0  0  0  0  0  0  0  0
   12.7607   -1.2167    0.0000 C   0  0  0  0  0  0  0  0  0  0  0  0
   12.0176   -0.5476    0.0000 C   0  0  0  0  0  0  0  0  0  0  0  0
   12.2255    0.4306    0.0000 C   0  0  0  0  0  0  0  0  0  0  0  0
   11.4824    1.0997    0.0000 C   0  0  3  0  0  0  0  0  0  0  0  0
   11.6903    2.0779    0.0000 C   0  0  0  0  0  0  0  0  0  0  0  0
    6.8899    2.2606    0.0000 H   0  0  0  0  0  0  0  0  0  0  0  0
    6.6714    2.6392    0.0000 H   0  0  0  0  0  0  0  0  0  0  0  0
    5.4013    0.6073    0.0000 H   0  0  0  0  0  0  0  0  0  0  0  0
    4.4953    2.1766    0.0000 H   0  0  0  0  0  0  0  0  0  0  0  0
   10.2156   -5.0052    0.0000 H   0  0  0  0  0  0  0  0  0  0  0  0
   10.4220   -3.5388    0.0000 H   0  0  0  0  0  0  0  0  0  0  0  0
   11.5465   -5.6546    0.0000 H   0  0  0  0  0  0  0  0  0  0  0  0
   12.2340   -3.5388    0.0000 H   0  0  0  0  0  0  0  0  0  0  0  0
    5.4714   -0.0023    0.0000 H   0  0  0  0  0  0  0  0  0  0  0  0
    6.0047   -0.5946    0.0000 H   0  0  0  0  0  0  0  0  0  0  0  0
    8.9483   -3.8638    0.0000 H   0  0  0  0  0  0  0  0  0  0  0  0
    9.4816   -4.4561    0.0000 H   0  0  0  0  0  0  0  0  0  0  0  0
    7.9112    2.1377    0.0000 H   0  0  0  0  0  0  0  0  0  0  0  0
    7.0756    3.5850    0.0000 H   0  0  0  0  0  0  0  0  0  0  0  0
   13.5488   -4.2570    0.0000 H   0  0  0  0  0  0  0  0  0  0  0  0
    3.1076    2.2936    0.0000 H   0  0  0  0  0  0  0  0  0  0  0  0
    9.6236   -5.8464    0.0000 H   0  0  0  0  0  0  0  0  0  0  0  0
   12.1636   -6.4776    0.0000 H   0  0  0  0  0  0  0  0  0  0  0  0
    5.6384    6.0053    0.0000 H   0  0  0  0  0  0  0  0  0  0  0  0
   14.3759   -1.9485    0.0000 H   0  0  0  0  0  0  0  0  0  0  0  0
   14.7078   -2.9698    0.0000 H   0  0  0  0  0  0  0  0  0  0  0  0
   13.3356   -1.4489    0.0000 H   0  0  0  0  0  0  0  0  0  0  0  0
   13.0893   -0.6909    0.0000 H   0  0  0  0  0  0  0  0  0  0  0  0
    6.0802   -2.0654    0.0000 H   0  0  0  0  0  0  0  0  0  0  0  0
   11.4427   -0.3153    0.0000 H   0  0  0  0  0  0  0  0  0  0  0  0
   11.6890   -1.0734    0.0000 H   0  0  0  0  0  0  0  0  0  0  0  0
    9.3244   -1.4750    0.0000 H   0  0  0  0  0  0  0  0  0  0  0  0
    2.4351    6.4776    0.0000 H   0  0  0  0  0  0  0  0  0  0  0  0
    2.0000    5.4958    0.0000 H   0  0  0  0  0  0  0  0  0  0  0  0
   12.8004    0.1983    0.0000 H   0  0  0  0  0  0  0  0  0  0  0  0
   12.5541    0.9564    0.0000 H   0  0  0  0  0  0  0  0  0  0  0  0
   11.3535    0.4933    0.0000 H   0  0  0  0  0  0  0  0  0  0  0  0
   10.0706    1.2056    0.0000 H   0  0  0  0  0  0  0  0  0  0  0  0
   10.4024    0.1843    0.0000 H   0  0  0  0  0  0  0  0  0  0  0  0
   12.7702    2.9933    0.0000 H   0  0  0  0  0  0  0  0  0  0  0  0
  1  7  1  0  0  0  0
  1 11  1  0  0  0  0
  1 12  1  0  0  0  0
  1 14  2  0  0  0  0
  2 10  1  0  0  0  0
  2 11  1  0  0  0  0
  2 13  1  0  0  0  0
  2 15  2  0  0  0  0
  3 29  1  0  0  0  0
  3 30  1  0  0  0  0
  4 32  1  0  0  0  0
  4 34  1  0  0  0  0
  5 27  1  0  0  0  0
  5 60  1  0  0  0  0
  6 28  1  0  0  0  0
  6 61  1  0  0  0  0
  7 35  1  0  0  0  0
  8 31  1  0  0  0  0
  8 64  1  0  0  0  0
  9 33  1  0  0  0  0
  9 65  1  0  0  0  0
 10 36  1  0  0  0  0
 12 71  1  0  0  0  0
 13 74  1  0  0  0  0
 16 47  1  0  0  0  0
 16 82  1  0  0  0  0
 17 47  2  0  0  0  0
 18 30  1  0  0  0  0
 18 37  1  0  0  0  0
 18 38  1  0  0  0  0
 19 34  1  0  0  0  0
 19 40  1  0  0  0  0
 19 62  1  0  0  0  0
 20 38  2  0  0  0  0
 20 39  1  0  0  0  0
 21 37  2  0  0  0  0
 21 42  1  0  0  0  0
 22 40  2  0  0  0  0
 22 43  1  0  0  0  0
 23 41  1  0  0  0  0
 23 42  2  0  0  0  0
 24 40  1  0  0  0  0
 24 67  1  0  0  0  0
 24 68  1  0  0  0  0
 25 41  1  0  0  0  0
 25 75  1  0  0  0  0
 25 76  1  0  0  0  0
 26 46  1  0  0  0  0
 26 80  1  0  0  0  0
 26 81  1  0  0  0  0
 27 28  1  0  0  0  0
 27 29  1  0  0  0  0
 27 48  1  0  0  0  0
 28 30  1  0  0  0  0
 28 49  1  0  0  0  0
 29 35  1  0  0  0  0
 29 50  1  0  0  0  0
 30 51  1  0  0  0  0
 31 32  1  0  0  0  0
 31 33  1  0  0  0  0
 31 52  1  0  0  0  0
 32 36  1  0  0  0  0
 32 53  1  0  0  0  0
 33 34  1  0  0  0  0
 33 54  1  0  0  0  0
 34 55  1  0  0  0  0
 35 56  1  0  0  0  0
 35 57  1  0  0  0  0
 36 58  1  0  0  0  0
 36 59  1  0  0  0  0
 37 39  1  0  0  0  0
 38 63  1  0  0  0  0
 39 41  2  0  0  0  0
 42 66  1  0  0  0  0
 43 44  1  0  0  0  0
 43 69  1  0  0  0  0
 43 70  1  0  0  0  0
 44 45  1  0  0  0  0
 44 72  1  0  0  0  0
 44 73  1  0  0  0  0
 45 46  1  0  0  0  0
 45 77  1  0  0  0  0
 45 78  1  0  0  0  0
 46 47  1  0  0  0  0
 46 79  1  0  0  0  0
M  END
> <PUBCHEM_COMPOUND_CID>
493

> <PUBCHEM_COMPOUND_CANONICALIZED>
1

> <PUBCHEM_CACTVS_COMPLEXITY>
1210

> <PUBCHEM_CACTVS_HBOND_ACCEPTOR>
21

> <PUBCHEM_CACTVS_HBOND_DONOR>
11

> <PUBCHEM_CACTVS_ROTATABLE_BOND>
16

> <PUBCHEM_CACTVS_SUBSKEYS>
AAADcfB7/AMAAAAAAAAAAAAAAAAAAWJEgAAsAAAAAAAAAFgB+AAAHgAQCCAACDzhlwYF+L/MFxCoQQbxbICAgC0REKABUKGoVBGDWBJAyEAeRAgPEALTACD4MQIAAAAAAAAAAAAAAAAAAAAAAAAAAAAAAA==

> <PUBCHEM_IUPAC_OPENEYE_NAME>
2-amino-5-[[amino-[[5-[[[[5-(6-aminopurin-9-yl)-3,4-dihydroxy-tetrahydrofuran-2-yl]methoxy-hydroxy-phosphoryl]oxy-hydroxy-phosphoryl]oxymethyl]-3,4-dihydroxy-tetrahydrofuran-2-yl]amino]methylene]amino]pentanoic acid

> <PUBCHEM_IUPAC_CAS_NAME>
2-amino-5-[[amino-[[5-[[[[5-(6-aminopurin-9-yl)-3,4-dihydroxy-2-oxolanyl]methoxy-hydroxyphosphoryl]oxy-hydroxyphosphoryl]oxymethyl]-3,4-dihydroxy-2-oxolanyl]amino]methylidene]amino]pentanoic acid

> <PUBCHEM_IUPAC_NAME_MARKUP>
2-amino-5-[[amino-[[5-[[[[5-(6-aminopurin-9-yl)-3,4-dihydroxyoxolan-2-yl]methoxy-hydroxyphosphoryl]oxy-hydroxyphosphoryl]oxymethyl]-3,4-dihydroxyoxolan-2-yl]amino]methylidene]amino]pentanoic acid

> <PUBCHEM_IUPAC_NAME>
2-amino-5-[[amino-[[5-[[[[5-(6-aminopurin-9-yl)-3,4-dihydroxyoxolan-2-yl]methoxy-hydroxyphosphoryl]oxy-hydroxyphosphoryl]oxymethyl]-3,4-dihydroxyoxolan-2-yl]amino]methylidene]amino]pentanoic acid

> <PUBCHEM_IUPAC_SYSTEMATIC_NAME>
5-[[[[5-[[[[5-(6-aminopurin-9-yl)-3,4-bis(oxidanyl)oxolan-2-yl]methoxy-oxidanyl-phosphoryl]oxy-oxidanyl-phosphoryl]oxymethyl]-3,4-bis(oxidanyl)oxolan-2-yl]amino]-azanyl-methylidene]amino]-2-azanyl-pentanoic acid

> <PUBCHEM_IUPAC_TRADITIONAL_NAME>
5-[[[[5-[[[(5-adenin-9-yl-3,4-dihydroxy-tetrahydrofuran-2-yl)methoxy-hydroxy-phosphoryl]oxy-hydroxy-phosphoryl]oxymethyl]-3,4-dihydroxy-tetrahydrofuran-2-yl]amino]-amino-methylene]amino]-2-amino-valeric acid

> <PUBCHEM_IUPAC_INCHI>
InChI=1S/C21H35N9O15P2/c22-8(20(35)36)2-1-3-25-21(24)29-18-14(33)12(31)9(43-18)4-41-46(37,38)45-47(39,40)42-5-10-13(32)15(34)19(44-10)30-7-28-11-16(23)26-6-27-17(11)30/h6-10,12-15,18-19,31-34H,1-5,22H2,(H,35,36)(H,37,38)(H,39,40)(H2,23,26,27)(H3,24,25,29)

> <PUBCHEM_IUPAC_INCHIKEY>
IWVSYNGKNZFSSA-UHFFFAOYSA-N

> <PUBCHEM_XLOGP3>
-9.5

> <PUBCHEM_EXACT_MASS>
715.17278544

> <PUBCHEM_MOLECULAR_FORMULA>
C21H35N9O15P2

> <PUBCHEM_MOLECULAR_WEIGHT>
715.5

> <PUBCHEM_SMILES>
C1=NC(=C2C(=N1)N(C=N2)C3C(C(C(O3)COP(=O)(O)OP(=O)(O)OCC4C(C(C(O4)NC(=NCCCC(C(=O)O)N)N)O)O)O)O)N

> <PUBCHEM_CONNECTIVITY_SMILES>
C1=NC(=C2C(=N1)N(C=N2)C3C(C(C(O3)COP(=O)(O)OP(=O)(O)OCC4C(C(C(O4)NC(=NCCCC(C(=O)O)N)N)O)O)O)O)N

> <PUBCHEM_CACTVS_TPSA>
385

> <PUBCHEM_MONOISOTOPIC_WEIGHT>
715.17278544

> <PUBCHEM_TOTAL_CHARGE>
0

> <PUBCHEM_HEAVY_ATOM_COUNT>
47

> <PUBCHEM_ATOM_DEF_STEREO_COUNT>
0

> <PUBCHEM_ATOM_UDEF_STEREO_COUNT>
9

> <PUBCHEM_BOND_DEF_STEREO_COUNT>
0

> <PUBCHEM_BOND_UDEF_STEREO_COUNT>
0

> <PUBCHEM_ISOTOPIC_ATOM_COUNT>
0

> <PUBCHEM_COMPONENT_COUNT>
1

> <PUBCHEM_CACTVS_TAUTO_COUNT>
-1

> <PUBCHEM_COORDINATE_TYPE>
1
5
255

> <PUBCHEM_BONDANNOTATIONS>
30  18  3
18  37  8
18  38  8
34  19  3
20  38  8
20  39  8
21  37  8
21  42  8
23  41  8
23  42  8
46  26  3
29  35  3
32  36  3
37  39  8
39  41  8
27  5  3
28  6  3
31  8  3
33  9  3

$$$$
