1025
  -OEChem-08152603373D

 38 40  0     1  0  0  0  0  0999 V2000
    3.1063    1.3720    0.6979 P   0  0  2  0  0  0  0  0  0  0  0  0
    2.1454    0.0569    0.8523 O   0  0  0  0  0  0  0  0  0  0  0  0
    2.6860    1.8074   -0.8224 O   0  0  0  0  0  0  0  0  0  0  0  0
    1.6883   -2.5455    1.5628 O   0  0  0  0  0  0  0  0  0  0  0  0
    2.0775   -1.3451   -2.5400 O   0  0  0  0  0  0  0  0  0  0  0  0
   -0.5989    1.8092   -0.2327 O   0  0  0  0  0  0  0  0  0  0  0  0
    4.5560    0.9359    0.7104 O   0  5  0  0  0  0  0  0  0  0  0  0
    2.6154    2.4376    1.6531 O   0  0  0  0  0  0  0  0  0  0  0  0
   -0.4445   -0.5798    1.1072 N   0  0  0  0  0  0  0  0  0  0  0  0
   -2.3830   -1.8152   -0.3890 N   0  0  0  0  0  0  0  0  0  0  0  0
   -4.1222   -0.2159    0.3575 N   0  0  0  0  0  0  0  0  0  0  0  0
   -2.8812    1.6061   -0.4596 N   0  0  0  0  0  0  0  0  0  0  0  0
   -5.2045    1.6001   -0.6299 N   0  0  0  0  0  0  0  0  0  0  0  0
    2.2502   -0.9663   -0.1381 C   0  0  1  0  0  0  0  0  0  0  0  0
    1.3112   -2.0960    0.2660 C   0  0  2  0  0  0  0  0  0  0  0  0
   -1.7397    0.0929    1.0417 C   0  0  2  0  0  0  0  0  0  0  0  0
   -0.1150   -1.6472    0.2893 C   0  0  0  0  0  0  0  0  0  0  0  0
    1.9085   -0.3767   -1.5143 C   0  0  1  0  0  0  0  0  0  0  0  0
   -2.8576   -0.9013    0.6533 C   0  0  2  0  0  0  0  0  0  0  0  0
    2.7990    0.8208   -1.8388 C   0  0  0  0  0  0  0  0  0  0  0  0
   -1.0749   -2.2233   -0.4539 C   0  0  0  0  0  0  0  0  0  0  0  0
   -1.6469    1.2307    0.0441 C   0  0  0  0  0  0  0  0  0  0  0  0
   -4.0755    0.9428   -0.2168 C   0  0  0  0  0  0  0  0  0  0  0  0
    3.2798   -1.3455   -0.1280 H   0  0  0  0  0  0  0  0  0  0  0  0
    1.4345   -2.9442   -0.4182 H   0  0  0  0  0  0  0  0  0  0  0  0
   -1.9656    0.5437    2.0159 H   0  0  0  0  0  0  0  0  0  0  0  0
    0.8713   -0.0275   -1.5343 H   0  0  0  0  0  0  0  0  0  0  0  0
   -3.0473   -1.5239    1.5377 H   0  0  0  0  0  0  0  0  0  0  0  0
    0.2988   -0.1560    1.6518 H   0  0  0  0  0  0  0  0  0  0  0  0
    3.8479    0.5221   -1.9467 H   0  0  0  0  0  0  0  0  0  0  0  0
    2.5020    1.2715   -2.7918 H   0  0  0  0  0  0  0  0  0  0  0  0
   -0.8988   -3.0425   -1.1390 H   0  0  0  0  0  0  0  0  0  0  0  0
   -3.0634   -2.3325   -0.9348 H   0  0  0  0  0  0  0  0  0  0  0  0
    2.6068   -2.8608    1.5111 H   0  0  0  0  0  0  0  0  0  0  0  0
   -2.9154    2.4439   -1.0331 H   0  0  0  0  0  0  0  0  0  0  0  0
    1.8266   -0.9302   -3.3829 H   0  0  0  0  0  0  0  0  0  0  0  0
   -5.1540    2.5084   -1.0782 H   0  0  0  0  0  0  0  0  0  0  0  0
   -6.1253    1.1963   -0.4973 H   0  0  0  0  0  0  0  0  0  0  0  0
  1  2  1  0  0  0  0
  1  3  1  0  0  0  0
  1  7  1  0  0  0  0
  1  8  2  0  0  0  0
  2 14  1  0  0  0  0
  3 20  1  0  0  0  0
  4 15  1  0  0  0  0
  4 34  1  0  0  0  0
  5 18  1  0  0  0  0
  5 36  1  0  0  0  0
  6 22  2  0  0  0  0
  9 16  1  0  0  0  0
  9 17  1  0  0  0  0
  9 29  1  0  0  0  0
 10 19  1  0  0  0  0
 10 21  1  0  0  0  0
 10 33  1  0  0  0  0
 11 19  1  0  0  0  0
 11 23  2  0  0  0  0
 12 22  1  0  0  0  0
 12 23  1  0  0  0  0
 12 35  1  0  0  0  0
 13 23  1  0  0  0  0
 13 37  1  0  0  0  0
 13 38  1  0  0  0  0
 14 15  1  0  0  0  0
 14 18  1  0  0  0  0
 14 24  1  0  0  0  0
 15 17  1  0  0  0  0
 15 25  1  0  0  0  0
 16 19  1  0  0  0  0
 16 22  1  0  0  0  0
 16 26  1  0  0  0  0
 17 21  2  0  0  0  0
 18 20  1  0  0  0  0
 18 27  1  0  0  0  0
 19 28  1  0  0  0  0
 20 30  1  0  0  0  0
 20 31  1  0  0  0  0
 21 32  1  0  0  0  0
M  CHG  1   7  -1
M  END
> <PUBCHEM_COMPOUND_CID>
1025

> <PUBCHEM_CONFORMER_RMSD>
0.8

> <PUBCHEM_CONFORMER_DIVERSEORDER>
75
12
270
517
410
404
250
226
134
441
155
510
363
369
272
308
358
33
554
455
391
35
431
440
430
109
204
2
74
241
571
251
85
296
175
534
288
495
340
327
120
525
538
502
393
319
82
563
481
290
142
150
505
170
15
567
547
306
406
198
124
249
37
281
382
342
429
3
103
446
301
110
493
56
130
191
4
136
396
289
229
144
426
232
72
151
504
532
206
268
256
24
118
573
126
245
186
338
10
361
16
168
235
255
531
466
375
128
59
106
181
568
45
179
76
96
100
343
428
160
278
125
354
461
77
132
225
329
148
318
129
127
277
209
262
7
409
347
89
498
164
70
159
381
309
49
91
383
557
444
234
230
47
199
302
8
220
95
193
529
213
131
86
470
5
69
523
50
542
535
283
137
401
163
63
187
294
219
293
388
581
279
105
123
324
88
149
38
6
1
28
111
263
399
84
202
71
11
53

> <PUBCHEM_MMFF94_PARTIAL_CHARGES>
31
1 1.44
10 -0.87
11 -0.7
12 -0.49
13 -0.85
14 0.28
15 0.42
16 0.43
17 -0.04
18 0.28
19 0.62
2 -0.55
20 0.28
21 -0.05
22 0.57
23 0.56
29 0.4
3 -0.55
32 0.15
33 0.4
34 0.4
35 0.37
36 0.4
37 0.4
38 0.4
4 -0.68
5 -0.68
6 -0.57
7 -0.95
8 -0.95
9 -0.87

> <PUBCHEM_EFFECTIVE_ROTOR_COUNT>
3.6

> <PUBCHEM_PHARMACOPHORE_FEATURES>
16
1 10 cation
1 10 donor
1 12 donor
1 13 donor
1 4 acceptor
1 4 donor
1 5 acceptor
1 5 donor
1 6 acceptor
1 7 acceptor
1 8 acceptor
1 9 cation
1 9 donor
6 1 2 3 14 18 20 rings
6 11 12 16 19 22 23 rings
6 9 10 16 17 19 21 rings

> <PUBCHEM_HEAVY_ATOM_COUNT>
23

> <PUBCHEM_ATOM_DEF_STEREO_COUNT>
0

> <PUBCHEM_ATOM_UDEF_STEREO_COUNT>
5

> <PUBCHEM_BOND_DEF_STEREO_COUNT>
0

> <PUBCHEM_BOND_UDEF_STEREO_COUNT>
0

> <PUBCHEM_ISOTOPIC_ATOM_COUNT>
0

> <PUBCHEM_COMPONENT_COUNT>
1

> <PUBCHEM_CACTVS_TAUTO_COUNT>
5

> <PUBCHEM_CONFORMER_ID>
000004010000004B

> <PUBCHEM_MMFF94_ENERGY>
56.466

> <PUBCHEM_FEATURE_SELFOVERLAP>
81.349

> <PUBCHEM_SHAPE_FINGERPRINT>
10498660 4 18336276703387447653
10646746 165 18410856607222091920
11140007 195 12468628392163380445
11640471 11 16807586220967614190
12670546 177 17846488262616282671
12788726 201 16954808663058335371
13140716 1 18191870029050834115
13224815 77 18334305257711506937
13965767 371 17022903501319892044
14289901 80 17313966163954468907
15635459 17 18130795559325419437
15775835 57 18410575102038244098
16945 1 18191873541907067187
17980427 23 17698683057419668322
18186145 218 18270977751617230873
18981168 100 18187652392124241511
20715895 44 17827061923810688029
21524375 3 18339929324128304682
21731516 1 12103302477049233038
21864079 5 17823997811898695340
22182313 1 18340217366278614427
23227448 37 18200026394951830293
23419403 2 15476183901902486934
23557571 272 18200032974741851635
23559900 14 17532377461368951219
238 59 17274833462315168380
2748010 2 18339377343357638435
474 4 17749108898130827515
5104073 3 18188495654030691105
5262128 65 17416424085715111596
7364860 26 18339641123174877090
7808743 9 18044951305130461844

> <PUBCHEM_SHAPE_MULTIPOLES>
411.19
7.53
2.64
1.55
4.86
0.43
-0.54
-4.29
-0.43
-0.48
0.33
-1.55
0.1
0.73

> <PUBCHEM_SHAPE_SELFOVERLAP>
862.486

> <PUBCHEM_SHAPE_VOLUME>
231.2

> <PUBCHEM_COORDINATE_TYPE>
2
5
10

$$$$
