746
  -OEChem-08152603103D

 38 37  0     1  0  0  0  0  0999 V2000
   -2.1046    2.1355    1.2468 S   0  0  0  0  0  0  0  0  0  0  0  0
   -2.8084    4.0600    1.1829 S   0  0  0  0  0  0  0  0  0  0  0  0
    1.4261    1.0677   -1.9066 O   0  0  0  0  0  0  0  0  0  0  0  0
   -1.7992   -1.5368    0.4503 O   0  0  0  0  0  0  0  0  0  0  0  0
    4.5319   -1.4512    1.8421 O   0  0  0  0  0  0  0  0  0  0  0  0
    5.7454   -1.9784    0.0006 O   0  0  0  0  0  0  0  0  0  0  0  0
   -5.0384   -0.0351    0.7984 O   0  0  0  0  0  0  0  0  0  0  0  0
   -6.2742   -1.9225    0.5569 O   0  0  0  0  0  0  0  0  0  0  0  0
    0.1225    0.2398   -0.1715 N   0  0  0  0  0  0  0  0  0  0  0  0
    6.2824    0.7005   -0.3639 N   0  0  0  0  0  0  0  0  0  0  0  0
   -3.3105   -0.6406   -1.0647 N   0  0  0  0  0  0  0  0  0  0  0  0
    3.8446    0.5981   -0.5693 C   0  0  0  0  0  0  0  0  0  0  0  0
   -1.1637    0.4460   -0.7963 C   0  0  2  0  0  0  0  0  0  0  0  0
    2.5125    0.2389    0.0922 C   0  0  0  0  0  0  0  0  0  0  0  0
    5.0506    0.3333    0.3389 C   0  0  1  0  0  0  0  0  0  0  0  0
    1.3199    0.5724   -0.7880 C   0  0  0  0  0  0  0  0  0  0  0  0
   -1.7250    1.8413   -0.5115 C   0  0  0  0  0  0  0  0  0  0  0  0
   -2.1039   -0.6837   -0.3809 C   0  0  0  0  0  0  0  0  0  0  0  0
    5.1690   -1.1405    0.6830 C   0  0  0  0  0  0  0  0  0  0  0  0
   -4.3551   -1.6174   -0.8638 C   0  0  0  0  0  0  0  0  0  0  0  0
   -5.3219   -1.2274    0.2245 C   0  0  0  0  0  0  0  0  0  0  0  0
    3.8301    1.6580   -0.8563 H   0  0  0  0  0  0  0  0  0  0  0  0
    3.9388    0.0244   -1.5016 H   0  0  0  0  0  0  0  0  0  0  0  0
   -1.0201    0.3545   -1.8812 H   0  0  0  0  0  0  0  0  0  0  0  0
    2.4045    0.7840    1.0373 H   0  0  0  0  0  0  0  0  0  0  0  0
    2.4668   -0.8343    0.3086 H   0  0  0  0  0  0  0  0  0  0  0  0
    4.9912    0.9163    1.2642 H   0  0  0  0  0  0  0  0  0  0  0  0
    0.1422   -0.1465    0.7683 H   0  0  0  0  0  0  0  0  0  0  0  0
   -0.9955    2.5947   -0.8309 H   0  0  0  0  0  0  0  0  0  0  0  0
   -2.6425    2.0027   -1.0868 H   0  0  0  0  0  0  0  0  0  0  0  0
    6.2544    1.6919   -0.6008 H   0  0  0  0  0  0  0  0  0  0  0  0
    6.3353    0.2047   -1.2535 H   0  0  0  0  0  0  0  0  0  0  0  0
   -3.4747    0.0894   -1.7509 H   0  0  0  0  0  0  0  0  0  0  0  0
   -3.9051   -2.5797   -0.6024 H   0  0  0  0  0  0  0  0  0  0  0  0
   -4.9052   -1.7016   -1.8052 H   0  0  0  0  0  0  0  0  0  0  0  0
    4.6005   -2.4070    2.0519 H   0  0  0  0  0  0  0  0  0  0  0  0
   -1.6430    4.7176    1.2695 H   0  0  0  0  0  0  0  0  0  0  0  0
   -5.6813    0.1961    1.5022 H   0  0  0  0  0  0  0  0  0  0  0  0
  1  2  1  0  0  0  0
  1 17  1  0  0  0  0
  2 37  1  0  0  0  0
  3 16  2  0  0  0  0
  4 18  2  0  0  0  0
  5 19  1  0  0  0  0
  5 36  1  0  0  0  0
  6 19  2  0  0  0  0
  7 21  1  0  0  0  0
  7 38  1  0  0  0  0
  8 21  2  0  0  0  0
  9 13  1  0  0  0  0
  9 16  1  0  0  0  0
  9 28  1  0  0  0  0
 10 15  1  0  0  0  0
 10 31  1  0  0  0  0
 10 32  1  0  0  0  0
 11 18  1  0  0  0  0
 11 20  1  0  0  0  0
 11 33  1  0  0  0  0
 12 14  1  0  0  0  0
 12 15  1  0  0  0  0
 12 22  1  0  0  0  0
 12 23  1  0  0  0  0
 13 17  1  0  0  0  0
 13 18  1  0  0  0  0
 13 24  1  0  0  0  0
 14 16  1  0  0  0  0
 14 25  1  0  0  0  0
 14 26  1  0  0  0  0
 15 19  1  0  0  0  0
 15 27  1  0  0  0  0
 17 29  1  0  0  0  0
 17 30  1  0  0  0  0
 20 21  1  0  0  0  0
 20 34  1  0  0  0  0
 20 35  1  0  0  0  0
M  END
> <PUBCHEM_COMPOUND_CID>
746

> <PUBCHEM_CONFORMER_RMSD>
1

> <PUBCHEM_CONFORMER_DIVERSEORDER>
25
198
16
197
154
90
181
117
293
325
167
283
36
332
278
300
237
289
273
23
228
157
266
72
182
188
308
55
37
35
100
280
153
58
91
45
192
9
218
211
343
142
98
109
60
277
205
238
127
102
129
168
71
276
52
310
106
74
17
128
249
85
122
320
32
138
1
49
220
174
111
312
226
63
134
43
177
50
3
190
251
269
147
200
104
141
318
38
202
170
172
233
46
75
110
2
131
24
311
303
105
213
232
115
201
333
26
206
185
80
163
120
337
229
158
196
31
94
302
82
21
93
4
14
345
146
287
175
281
323
78
150
306
123
313
255
20
39
314
183
265
12
140
329
315
296
204
28
113
288
216
245
215
246
22
331
79
231
19
33
29
143
180
285
118
268
87
236
126
8
223
53
261
112
95
116
247
164
84
160
137
73
321
335
41
47
305
64
235
259
224
159
108
13
334
66
119
101
186
195
194
328
241
254
86
144
189
156
30
5
267
15
18
96
152
124
88
191
307
290
253
240
230
282
340
103
92
136
132
145
214
162
279
248
62
316
65
133
83
77
239
252
317
44
173
81
327
10
97
89
151
203
42
212
221
209
338
225
121
76
222
210
309
34
107
297
11
243
67
176
130
271
324
125
171
56
166
148
304
68
227
59
54
275
284
135
291
48
272
256
155
187
149
342
326
341
207
322
199
292
250
69
286
344
139
330
70
179
51
208
260
244
262
7
184
178
114
99
264
319
295
263
242
274
27
294
339
161
298
336
6
57
270
258
346
257
217
169
193
61
219
40
299
165
234
301

> <PUBCHEM_MMFF94_PARTIAL_CHARGES>
27
1 -0.23
10 -0.99
11 -0.73
13 0.36
14 0.06
15 0.33
16 0.57
17 0.23
18 0.57
19 0.66
2 -0.18
20 0.36
21 0.66
28 0.37
3 -0.57
31 0.36
32 0.36
33 0.37
36 0.5
37 0.18
38 0.5
4 -0.57
5 -0.65
6 -0.57
7 -0.65
8 -0.57
9 -0.73

> <PUBCHEM_EFFECTIVE_ROTOR_COUNT>
12

> <PUBCHEM_PHARMACOPHORE_FEATURES>
12
1 10 cation
1 10 donor
1 11 donor
1 3 acceptor
1 4 acceptor
1 5 acceptor
1 6 acceptor
1 7 acceptor
1 8 acceptor
1 9 donor
3 5 6 19 anion
3 7 8 21 anion

> <PUBCHEM_HEAVY_ATOM_COUNT>
21

> <PUBCHEM_ATOM_DEF_STEREO_COUNT>
0

> <PUBCHEM_ATOM_UDEF_STEREO_COUNT>
2

> <PUBCHEM_BOND_DEF_STEREO_COUNT>
0

> <PUBCHEM_BOND_UDEF_STEREO_COUNT>
0

> <PUBCHEM_ISOTOPIC_ATOM_COUNT>
0

> <PUBCHEM_COMPONENT_COUNT>
1

> <PUBCHEM_CACTVS_TAUTO_COUNT>
4

> <PUBCHEM_CONFORMER_ID>
000002EA00000019

> <PUBCHEM_MMFF94_ENERGY>
20.6554

> <PUBCHEM_FEATURE_SELFOVERLAP>
61.017

> <PUBCHEM_SHAPE_FINGERPRINT>
12107183 9 17835238948778210832
12236239 1 18260550021598665013
12596602 18 18409166597815811976
12788726 201 18341341053881693313
13073987 5 18341608192937935016
13533116 47 18261675973488233404
13551218 46 18409445873437438134
13583140 156 17059194970265196590
14178342 30 18269844116158030884
18006028 8 18343018939186082453
19784866 240 17894633660113485967
200 152 18114177562089477053
20645477 70 16805601495374314740
20871999 31 10665241362036268584
21065198 48 18409731738545503572
22079108 93 14045738257213912958
22182313 1 16916519042362182108
23198884 109 12107779701034415166
23402539 116 18343579664204013293
23557571 272 17560816410956671900
23559900 14 17970906885276050956
25147074 1 18189353358267076644
2838139 119 10591771973509154275
312423 11 18334021583791045380
351380 3 18260823817459050822
4340502 62 15123238766377944711
465052 167 18335137592694296886
5104073 3 18341321190359400880
573450 72 18340481167412141496
57724786 102 14835825344935735074
633830 44 12319730389290466412
7226269 152 18413107256412056641

> <PUBCHEM_SHAPE_MULTIPOLES>
389.71
14.96
2.98
1.29
11.04
3.28
0.01
-8.42
3.68
-4.64
1.13
0.38
0.13
-1.58

> <PUBCHEM_SHAPE_SELFOVERLAP>
738.749

> <PUBCHEM_SHAPE_VOLUME>
241.2

> <PUBCHEM_COORDINATE_TYPE>
2
5
10

$$$$
