495
  -OEChem-08152602513D

 34 34  0     1  0  0  0  0  0999 V2000
   -0.6087    1.2037    0.1857 S   0  0  0  0  0  0  0  0  0  0  0  0
    3.1755    0.6918   -1.1065 O   0  0  0  0  0  0  0  0  0  0  0  0
    1.5748   -1.3894    0.4328 O   0  0  0  0  0  0  0  0  0  0  0  0
    4.2780    0.6131    1.7513 O   0  0  0  0  0  0  0  0  0  0  0  0
    4.1222   -1.4552   -1.1842 O   0  0  0  0  0  0  0  0  0  0  0  0
   -2.6786   -1.7404    0.1388 O   0  0  0  0  0  0  0  0  0  0  0  0
   -4.7947   -1.4849   -0.6330 O   0  0  0  0  0  0  0  0  0  0  0  0
   -5.1180    0.6438    1.0888 N   0  0  0  0  0  0  0  0  0  0  0  0
    2.0916    0.9006   -0.1835 C   0  0  2  0  0  0  0  0  0  0  0  0
    2.2092   -0.1948    0.8709 C   0  0  2  0  0  0  0  0  0  0  0  0
    3.7083   -0.4038    0.9351 C   0  0  1  0  0  0  0  0  0  0  0  0
    4.1345   -0.2000   -0.5140 C   0  0  2  0  0  0  0  0  0  0  0  0
    0.7806    0.9352   -0.9477 C   0  0  0  0  0  0  0  0  0  0  0  0
   -1.9481    1.1874   -1.0283 C   0  0  0  0  0  0  0  0  0  0  0  0
   -3.3306    1.3978   -0.4035 C   0  0  0  0  0  0  0  0  0  0  0  0
   -3.7641    0.3359    0.6171 C   0  0  2  0  0  0  0  0  0  0  0  0
   -3.8319   -1.0407   -0.0199 C   0  0  0  0  0  0  0  0  0  0  0  0
    2.2814    1.8781    0.2796 H   0  0  0  0  0  0  0  0  0  0  0  0
    1.7781    0.1020    1.8326 H   0  0  0  0  0  0  0  0  0  0  0  0
    4.0000   -1.3833    1.3277 H   0  0  0  0  0  0  0  0  0  0  0  0
    5.1306    0.2412   -0.6125 H   0  0  0  0  0  0  0  0  0  0  0  0
    0.6336    0.0112   -1.5180 H   0  0  0  0  0  0  0  0  0  0  0  0
    0.8111    1.7491   -1.6811 H   0  0  0  0  0  0  0  0  0  0  0  0
    0.6144   -1.2531    0.5001 H   0  0  0  0  0  0  0  0  0  0  0  0
    3.9481    0.4794    2.6563 H   0  0  0  0  0  0  0  0  0  0  0  0
   -1.7670    1.9934   -1.7478 H   0  0  0  0  0  0  0  0  0  0  0  0
   -1.9223    0.2440   -1.5828 H   0  0  0  0  0  0  0  0  0  0  0  0
   -4.0580    1.4272   -1.2270 H   0  0  0  0  0  0  0  0  0  0  0  0
   -3.3629    2.3909    0.0653 H   0  0  0  0  0  0  0  0  0  0  0  0
    3.4012   -1.9953   -0.8198 H   0  0  0  0  0  0  0  0  0  0  0  0
   -3.1014    0.3048    1.4876 H   0  0  0  0  0  0  0  0  0  0  0  0
   -5.1262    1.5668    1.5217 H   0  0  0  0  0  0  0  0  0  0  0  0
   -5.3819   -0.0144    1.8214 H   0  0  0  0  0  0  0  0  0  0  0  0
   -2.7247   -2.6229   -0.2870 H   0  0  0  0  0  0  0  0  0  0  0  0
  1 13  1  0  0  0  0
  1 14  1  0  0  0  0
  2  9  1  0  0  0  0
  2 12  1  0  0  0  0
  3 10  1  0  0  0  0
  3 24  1  0  0  0  0
  4 11  1  0  0  0  0
  4 25  1  0  0  0  0
  5 12  1  0  0  0  0
  5 30  1  0  0  0  0
  6 17  1  0  0  0  0
  6 34  1  0  0  0  0
  7 17  2  0  0  0  0
  8 16  1  0  0  0  0
  8 32  1  0  0  0  0
  8 33  1  0  0  0  0
  9 10  1  0  0  0  0
  9 13  1  0  0  0  0
  9 18  1  0  0  0  0
 10 11  1  0  0  0  0
 10 19  1  0  0  0  0
 11 12  1  0  0  0  0
 11 20  1  0  0  0  0
 12 21  1  0  0  0  0
 13 22  1  0  0  0  0
 13 23  1  0  0  0  0
 14 15  1  0  0  0  0
 14 26  1  0  0  0  0
 14 27  1  0  0  0  0
 15 16  1  0  0  0  0
 15 28  1  0  0  0  0
 15 29  1  0  0  0  0
 16 17  1  0  0  0  0
 16 31  1  0  0  0  0
M  END
> <PUBCHEM_COMPOUND_CID>
495

> <PUBCHEM_CONFORMER_RMSD>
1

> <PUBCHEM_CONFORMER_DIVERSEORDER>
79
862
527
746
43
697
823
44
701
153
58
618
333
81
755
1
125
785
24
98
756
620
142
597
53
761
751
10
41
844
21
245
12
314
745
308
772
38
662
35
471
113
211
691
515
241
382
368
27
837
193
638
94
215
848
529
36
46
286
435
59
436
740
677
531
97
182
15
802
869
29
453
680
424
112
87
622
446
686
815
206
617
49
26
747
92
542
779
842
20
796
198
159
373
327
504
335
246
548
33
469
363
274
652
673
484
244
415
358
724
675
588
722
8
582
561
55
11
591
420
317
831
378
341
111
118
840
606
175
370
778
194
139
109
28
499
164
406
678
814
611
204
177
369
3
52
210
545
42
270
2
64
320
306
732
192
791
444
699
218
397
759
449
710
287
32
538
60
625
743
350
91
77
647
344
825
386
651
496
102
165
827
321
296
377
639
498
173
533
90
715
23
19
656
6
4
583
352
47
349
133
776
160
351
551
445
419
345
708
466
454
117
13
5
161
758
129
146

> <PUBCHEM_MMFF94_PARTIAL_CHARGES>
22
1 -0.46
10 0.28
11 0.28
12 0.56
13 0.23
14 0.23
16 0.33
17 0.66
2 -0.56
24 0.4
25 0.4
3 -0.68
30 0.4
32 0.36
33 0.36
34 0.5
4 -0.68
5 -0.68
6 -0.65
7 -0.57
8 -0.99
9 0.28

> <PUBCHEM_EFFECTIVE_ROTOR_COUNT>
7

> <PUBCHEM_PHARMACOPHORE_FEATURES>
14
1 2 acceptor
1 3 acceptor
1 3 donor
1 4 acceptor
1 4 donor
1 5 acceptor
1 5 donor
1 6 acceptor
1 7 acceptor
1 8 cation
1 8 donor
3 6 7 17 anion
4 1 13 14 15 hydrophobe
5 2 9 10 11 12 rings

> <PUBCHEM_HEAVY_ATOM_COUNT>
17

> <PUBCHEM_ATOM_DEF_STEREO_COUNT>
0

> <PUBCHEM_ATOM_UDEF_STEREO_COUNT>
5

> <PUBCHEM_BOND_DEF_STEREO_COUNT>
0

> <PUBCHEM_BOND_UDEF_STEREO_COUNT>
0

> <PUBCHEM_ISOTOPIC_ATOM_COUNT>
0

> <PUBCHEM_COMPONENT_COUNT>
1

> <PUBCHEM_CACTVS_TAUTO_COUNT>
1

> <PUBCHEM_CONFORMER_ID>
000001EF0000004F

> <PUBCHEM_MMFF94_ENERGY>
30.8726

> <PUBCHEM_FEATURE_SELFOVERLAP>
71.151

> <PUBCHEM_SHAPE_FINGERPRINT>
11046707 91 18333730226078547781
11132069 177 18409443683077196961
11552529 35 16916496103237045255
12553582 1 18113620088393606757
13167823 11 17967254178293008501
13675066 3 17775282742270604437
14251752 14 17822279190348210069
14252887 29 18201997712237700836
15239191 94 18186517704851324701
15375462 189 18186519899706298169
15537594 2 18114188505861508139
15880784 105 17489586783576174599
18915474 69 18187089489378283917
200 152 17458061556046086957
20261772 1 18333736814231254323
20281475 54 18260825956141462324
20645477 70 14924225980745316904
212847 35 13614518541496115256
22646028 1 18040150721167106013
23402539 116 16153702081720854956
23402655 69 17313382271207788196
23503953 91 18413108372760805337
23559900 14 18272092682230671964
2871803 45 17968089841674278127
351380 180 9367340414738341051
351380 3 17895199891543169041
5924683 9 17774995834972323151
602551 16 18341327876948467690
633830 44 14490753386517672533
90127 26 16558755602361758161

> <PUBCHEM_SHAPE_MULTIPOLES>
313.5
11.12
1.61
1.22
3.8
0.3
0.17
2.65
1.08
1.06
-0.32
-0.86
-0.05
-0.13

> <PUBCHEM_SHAPE_SELFOVERLAP>
609.702

> <PUBCHEM_SHAPE_VOLUME>
190.6

> <PUBCHEM_COORDINATE_TYPE>
2
5
10

$$$$
