343
  -OEChem-08152602392D

 26 27  0     1  0  0  0  0  0999 V2000
    6.6648    0.0000    0.0000 P   0  0  0  0  0  0  0  0  0  0  0  0
    6.0812   -0.8047    0.0000 O   0  0  0  0  0  0  0  0  0  0  0  0
    6.0812    0.8047    0.0000 O   0  0  0  0  0  0  0  0  0  0  0  0
    4.2690   -2.0000    0.0000 O   0  0  0  0  0  0  0  0  0  0  0  0
    4.2690    2.0000    0.0000 O   0  0  0  0  0  0  0  0  0  0  0  0
    2.5369   -1.0000    0.0000 O   0  0  0  0  0  0  0  0  0  0  0  0
    2.5369    1.0000    0.0000 O   0  0  0  0  0  0  0  0  0  0  0  0
    7.4739   -0.5878    0.0000 O   0  0  0  0  0  0  0  0  0  0  0  0
    7.4739    0.5878    0.0000 O   0  0  0  0  0  0  0  0  0  0  0  0
    5.1350   -0.5000    0.0000 C   0  0  3  0  0  0  0  0  0  0  0  0
    5.1350    0.5000    0.0000 C   0  0  3  0  0  0  0  0  0  0  0  0
    4.2690   -1.0000    0.0000 C   0  0  3  0  0  0  0  0  0  0  0  0
    4.2690    1.0000    0.0000 C   0  0  3  0  0  0  0  0  0  0  0  0
    3.4030   -0.5000    0.0000 C   0  0  3  0  0  0  0  0  0  0  0  0
    3.4030    0.5000    0.0000 C   0  0  3  0  0  0  0  0  0  0  0  0
    5.2006   -1.1165    0.0000 H   0  0  0  0  0  0  0  0  0  0  0  0
    5.2006    1.1165    0.0000 H   0  0  0  0  0  0  0  0  0  0  0  0
    4.8059   -1.3100    0.0000 H   0  0  0  0  0  0  0  0  0  0  0  0
    4.8059    1.3100    0.0000 H   0  0  0  0  0  0  0  0  0  0  0  0
    3.4030   -1.1200    0.0000 H   0  0  0  0  0  0  0  0  0  0  0  0
    3.4030    1.1200    0.0000 H   0  0  0  0  0  0  0  0  0  0  0  0
    3.7320   -2.3100    0.0000 H   0  0  0  0  0  0  0  0  0  0  0  0
    3.7320    2.3100    0.0000 H   0  0  0  0  0  0  0  0  0  0  0  0
    2.0000   -0.6900    0.0000 H   0  0  0  0  0  0  0  0  0  0  0  0
    2.0000    0.6900    0.0000 H   0  0  0  0  0  0  0  0  0  0  0  0
    8.0403   -0.3356    0.0000 H   0  0  0  0  0  0  0  0  0  0  0  0
  1  2  1  0  0  0  0
  1  3  1  0  0  0  0
  1  8  1  0  0  0  0
  1  9  2  0  0  0  0
  2 10  1  0  0  0  0
  3 11  1  0  0  0  0
  4 12  1  0  0  0  0
  4 22  1  0  0  0  0
  5 13  1  0  0  0  0
  5 23  1  0  0  0  0
  6 14  1  0  0  0  0
  6 24  1  0  0  0  0
  7 15  1  0  0  0  0
  7 25  1  0  0  0  0
  8 26  1  0  0  0  0
 10 11  1  0  0  0  0
 10 12  1  0  0  0  0
 10 16  1  0  0  0  0
 11 13  1  0  0  0  0
 11 17  1  0  0  0  0
 12 14  1  0  0  0  0
 12 18  1  0  0  0  0
 13 15  1  0  0  0  0
 13 19  1  0  0  0  0
 14 15  1  0  0  0  0
 14 20  1  0  0  0  0
 15 21  1  0  0  0  0
M  END
> <PUBCHEM_COMPOUND_CID>
343

> <PUBCHEM_COMPOUND_CANONICALIZED>
1

> <PUBCHEM_CACTVS_COMPLEXITY>
282

> <PUBCHEM_CACTVS_HBOND_ACCEPTOR>
8

> <PUBCHEM_CACTVS_HBOND_DONOR>
5

> <PUBCHEM_CACTVS_ROTATABLE_BOND>
0

> <PUBCHEM_CACTVS_SUBSKEYS>
AAADccBgPAIAAAAAAAAAAAAAAAAAASAAAAAwAAAAAAAAAEgAAAAAGgAACCAACBSggAIAAAAAAxAAQAAAAIAAAAAAAAAAAAAAAAABEAIAAAAAQAAFAAABAAHAYAQAAAAAAAAAAAACAAAQAACAAAAAAAAAAA==

> <PUBCHEM_IUPAC_OPENEYE_NAME>
2-hydroxy-2-oxo-3a,4,5,6,7,7a-hexahydrobenzo[d][1,3,2]dioxaphosphole-4,5,6,7-tetrol

> <PUBCHEM_IUPAC_CAS_NAME>
2-hydroxy-2-oxo-3a,4,5,6,7,7a-hexahydrobenzo[d][1,3,2]dioxaphosphole-4,5,6,7-tetrol

> <PUBCHEM_IUPAC_NAME_MARKUP>
2-hydroxy-2-oxo-3<I>a</I>,4,5,6,7,7<I>a</I>-hexahydrobenzo[d][1,3,2]dioxaphosphole-4,5,6,7-tetrol

> <PUBCHEM_IUPAC_NAME>
2-hydroxy-2-oxo-3a,4,5,6,7,7a-hexahydrobenzo[d][1,3,2]dioxaphosphole-4,5,6,7-tetrol

> <PUBCHEM_IUPAC_SYSTEMATIC_NAME>
2-oxidanyl-2-oxidanylidene-3a,4,5,6,7,7a-hexahydrobenzo[d][1,3,2]dioxaphosphole-4,5,6,7-tetrol

> <PUBCHEM_IUPAC_TRADITIONAL_NAME>
2-hydroxy-2-keto-3a,4,5,6,7,7a-hexahydrobenzo[d][1,3,2]dioxaphosphole-4,5,6,7-tetrol

> <PUBCHEM_IUPAC_INCHI>
InChI=1S/C6H11O8P/c7-1-2(8)4(10)6-5(3(1)9)13-15(11,12)14-6/h1-10H,(H,11,12)

> <PUBCHEM_IUPAC_INCHIKEY>
SXHMVNXROAUURW-UHFFFAOYSA-N

> <PUBCHEM_XLOGP3_AA>
-3.8

> <PUBCHEM_EXACT_MASS>
242.01915430

> <PUBCHEM_MOLECULAR_FORMULA>
C6H11O8P

> <PUBCHEM_MOLECULAR_WEIGHT>
242.12

> <PUBCHEM_SMILES>
C1(C(C(C2C(C1O)OP(=O)(O2)O)O)O)O

> <PUBCHEM_CONNECTIVITY_SMILES>
C1(C(C(C2C(C1O)OP(=O)(O2)O)O)O)O

> <PUBCHEM_CACTVS_TPSA>
137

> <PUBCHEM_MONOISOTOPIC_WEIGHT>
242.01915430

> <PUBCHEM_TOTAL_CHARGE>
0

> <PUBCHEM_HEAVY_ATOM_COUNT>
15

> <PUBCHEM_ATOM_DEF_STEREO_COUNT>
0

> <PUBCHEM_ATOM_UDEF_STEREO_COUNT>
6

> <PUBCHEM_BOND_DEF_STEREO_COUNT>
0

> <PUBCHEM_BOND_UDEF_STEREO_COUNT>
0

> <PUBCHEM_ISOTOPIC_ATOM_COUNT>
0

> <PUBCHEM_COMPONENT_COUNT>
1

> <PUBCHEM_CACTVS_TAUTO_COUNT>
-1

> <PUBCHEM_COORDINATE_TYPE>
1
5
255

> <PUBCHEM_BONDANNOTATIONS>
10  2  3
11  3  3
12  4  3
13  5  3
14  6  3
15  7  3

$$$$
