1069
  -OEChem-08152603402D

129130  0     1  0  0  0  0  0999 V2000
   30.5788   -2.0000    0.0000 O   0  0  0  0  0  0  0  0  0  0  0  0
   30.5788    2.0000    0.0000 O   0  0  0  0  0  0  0  0  0  0  0  0
   30.5788   -1.0000    0.0000 C   0  0  3  0  0  0  0  0  0  0  0  0
   29.7128   -0.5000    0.0000 C   0  0  0  0  0  0  0  0  0  0  0  0
   30.5788    1.0000    0.0000 C   0  0  3  0  0  0  0  0  0  0  0  0
   29.7128    0.5000    0.0000 C   0  0  0  0  0  0  0  0  0  0  0  0
   31.4449   -0.5000    0.0000 C   0  0  0  0  0  0  0  0  0  0  0  0
   31.4449    0.5000    0.0000 C   0  0  0  0  0  0  0  0  0  0  0  0
   28.8468   -1.0000    0.0000 C   0  0  0  0  0  0  0  0  0  0  0  0
   28.8468    1.0000    0.0000 C   0  0  0  0  0  0  0  0  0  0  0  0
   32.3388   -1.0347    0.0000 C   0  0  0  0  0  0  0  0  0  0  0  0
   32.3388    1.0347    0.0000 C   0  0  0  0  0  0  0  0  0  0  0  0
   27.9808   -0.5000    0.0000 C   0  0  0  0  0  0  0  0  0  0  0  0
   33.2449   -0.5208    0.0000 C   0  0  0  0  0  0  0  0  0  0  0  0
   33.2449    0.5208    0.0000 C   0  0  0  0  0  0  0  0  0  0  0  0
   27.1147   -1.0000    0.0000 C   0  0  0  0  0  0  0  0  0  0  0  0
   26.2487   -0.5000    0.0000 C   0  0  0  0  0  0  0  0  0  0  0  0
   25.3827   -1.0000    0.0000 C   0  0  0  0  0  0  0  0  0  0  0  0
   27.1147   -2.0000    0.0000 C   0  0  0  0  0  0  0  0  0  0  0  0
   24.5167   -0.5000    0.0000 C   0  0  0  0  0  0  0  0  0  0  0  0
   23.6506   -1.0000    0.0000 C   0  0  0  0  0  0  0  0  0  0  0  0
   22.7846   -0.5000    0.0000 C   0  0  0  0  0  0  0  0  0  0  0  0
   21.9186   -1.0000    0.0000 C   0  0  0  0  0  0  0  0  0  0  0  0
   19.3205   -0.5000    0.0000 C   0  0  0  0  0  0  0  0  0  0  0  0
   23.6506   -2.0000    0.0000 C   0  0  0  0  0  0  0  0  0  0  0  0
   20.1865   -1.0000    0.0000 C   0  0  0  0  0  0  0  0  0  0  0  0
   21.0526   -0.5000    0.0000 C   0  0  0  0  0  0  0  0  0  0  0  0
   18.4545   -1.0000    0.0000 C   0  0  0  0  0  0  0  0  0  0  0  0
   15.8564   -0.5000    0.0000 C   0  0  0  0  0  0  0  0  0  0  0  0
   14.9904   -1.0000    0.0000 C   0  0  0  0  0  0  0  0  0  0  0  0
   16.7224   -1.0000    0.0000 C   0  0  0  0  0  0  0  0  0  0  0  0
   12.3923   -0.5000    0.0000 C   0  0  0  0  0  0  0  0  0  0  0  0
   11.5263   -1.0000    0.0000 C   0  0  0  0  0  0  0  0  0  0  0  0
   13.2583   -1.0000    0.0000 C   0  0  0  0  0  0  0  0  0  0  0  0
   17.5885   -0.5000    0.0000 C   0  0  0  0  0  0  0  0  0  0  0  0
   14.1244   -0.5000    0.0000 C   0  0  0  0  0  0  0  0  0  0  0  0
    8.9282   -0.5000    0.0000 C   0  0  0  0  0  0  0  0  0  0  0  0
    9.7942   -1.0000    0.0000 C   0  0  0  0  0  0  0  0  0  0  0  0
   10.6603   -0.5000    0.0000 C   0  0  0  0  0  0  0  0  0  0  0  0
    8.0622   -1.0000    0.0000 C   0  0  0  0  0  0  0  0  0  0  0  0
   20.1865   -2.0000    0.0000 C   0  0  0  0  0  0  0  0  0  0  0  0
   16.7224   -2.0000    0.0000 C   0  0  0  0  0  0  0  0  0  0  0  0
   13.2583   -2.0000    0.0000 C   0  0  0  0  0  0  0  0  0  0  0  0
    7.1962   -0.5000    0.0000 C   0  0  0  0  0  0  0  0  0  0  0  0
    6.3301   -1.0000    0.0000 C   0  0  0  0  0  0  0  0  0  0  0  0
    5.4641   -0.5000    0.0000 C   0  0  0  0  0  0  0  0  0  0  0  0
    9.7942   -2.0000    0.0000 C   0  0  0  0  0  0  0  0  0  0  0  0
    4.5981   -1.0000    0.0000 C   0  0  0  0  0  0  0  0  0  0  0  0
    6.3301   -2.0000    0.0000 C   0  0  0  0  0  0  0  0  0  0  0  0
    3.7320   -0.5000    0.0000 C   0  0  0  0  0  0  0  0  0  0  0  0
    2.8660   -1.0000    0.0000 C   0  0  0  0  0  0  0  0  0  0  0  0
    2.0000   -0.5000    0.0000 C   0  0  0  0  0  0  0  0  0  0  0  0
    2.8660   -2.0000    0.0000 C   0  0  0  0  0  0  0  0  0  0  0  0
   31.1158   -1.3100    0.0000 H   0  0  0  0  0  0  0  0  0  0  0  0
   31.1158    1.3100    0.0000 H   0  0  0  0  0  0  0  0  0  0  0  0
   28.4483   -1.4750    0.0000 H   0  0  0  0  0  0  0  0  0  0  0  0
   29.2453   -1.4750    0.0000 H   0  0  0  0  0  0  0  0  0  0  0  0
   29.1568    1.5369    0.0000 H   0  0  0  0  0  0  0  0  0  0  0  0
   28.3099    1.3100    0.0000 H   0  0  0  0  0  0  0  0  0  0  0  0
   28.5368    0.4631    0.0000 H   0  0  0  0  0  0  0  0  0  0  0  0
   32.3316   -1.6546    0.0000 H   0  0  0  0  0  0  0  0  0  0  0  0
   32.3316    1.6546    0.0000 H   0  0  0  0  0  0  0  0  0  0  0  0
   27.9808    0.1200    0.0000 H   0  0  0  0  0  0  0  0  0  0  0  0
   30.0419   -2.3100    0.0000 H   0  0  0  0  0  0  0  0  0  0  0  0
   33.7806   -0.8329    0.0000 H   0  0  0  0  0  0  0  0  0  0  0  0
   33.7806    0.8329    0.0000 H   0  0  0  0  0  0  0  0  0  0  0  0
   30.0419    2.3100    0.0000 H   0  0  0  0  0  0  0  0  0  0  0  0
   26.6472   -0.0251    0.0000 H   0  0  0  0  0  0  0  0  0  0  0  0
   25.8502   -0.0251    0.0000 H   0  0  0  0  0  0  0  0  0  0  0  0
   24.9842   -1.4750    0.0000 H   0  0  0  0  0  0  0  0  0  0  0  0
   25.7812   -1.4750    0.0000 H   0  0  0  0  0  0  0  0  0  0  0  0
   26.4947   -2.0000    0.0000 H   0  0  0  0  0  0  0  0  0  0  0  0
   27.1147   -2.6200    0.0000 H   0  0  0  0  0  0  0  0  0  0  0  0
   27.7347   -2.0000    0.0000 H   0  0  0  0  0  0  0  0  0  0  0  0
   24.5167    0.1200    0.0000 H   0  0  0  0  0  0  0  0  0  0  0  0
   23.1831   -0.0251    0.0000 H   0  0  0  0  0  0  0  0  0  0  0  0
   22.3861   -0.0251    0.0000 H   0  0  0  0  0  0  0  0  0  0  0  0
   21.5201   -1.4750    0.0000 H   0  0  0  0  0  0  0  0  0  0  0  0
   22.3171   -1.4750    0.0000 H   0  0  0  0  0  0  0  0  0  0  0  0
   19.7190   -0.0251    0.0000 H   0  0  0  0  0  0  0  0  0  0  0  0
   18.9220   -0.0251    0.0000 H   0  0  0  0  0  0  0  0  0  0  0  0
   23.0306   -2.0000    0.0000 H   0  0  0  0  0  0  0  0  0  0  0  0
   23.6506   -2.6200    0.0000 H   0  0  0  0  0  0  0  0  0  0  0  0
   24.2706   -2.0000    0.0000 H   0  0  0  0  0  0  0  0  0  0  0  0
   21.0526    0.1200    0.0000 H   0  0  0  0  0  0  0  0  0  0  0  0
   18.0560   -1.4750    0.0000 H   0  0  0  0  0  0  0  0  0  0  0  0
   18.8530   -1.4750    0.0000 H   0  0  0  0  0  0  0  0  0  0  0  0
   16.2549   -0.0251    0.0000 H   0  0  0  0  0  0  0  0  0  0  0  0
   15.4579   -0.0251    0.0000 H   0  0  0  0  0  0  0  0  0  0  0  0
   14.5919   -1.4750    0.0000 H   0  0  0  0  0  0  0  0  0  0  0  0
   15.3889   -1.4750    0.0000 H   0  0  0  0  0  0  0  0  0  0  0  0
   12.7908   -0.0251    0.0000 H   0  0  0  0  0  0  0  0  0  0  0  0
   11.9938   -0.0251    0.0000 H   0  0  0  0  0  0  0  0  0  0  0  0
   11.1278   -1.4750    0.0000 H   0  0  0  0  0  0  0  0  0  0  0  0
   11.9248   -1.4750    0.0000 H   0  0  0  0  0  0  0  0  0  0  0  0
   17.5885    0.1200    0.0000 H   0  0  0  0  0  0  0  0  0  0  0  0
   14.1244    0.1200    0.0000 H   0  0  0  0  0  0  0  0  0  0  0  0
    9.3267   -0.0251    0.0000 H   0  0  0  0  0  0  0  0  0  0  0  0
    8.5297   -0.0251    0.0000 H   0  0  0  0  0  0  0  0  0  0  0  0
    7.6636   -1.4750    0.0000 H   0  0  0  0  0  0  0  0  0  0  0  0
    8.4607   -1.4750    0.0000 H   0  0  0  0  0  0  0  0  0  0  0  0
   10.6603    0.1200    0.0000 H   0  0  0  0  0  0  0  0  0  0  0  0
   19.5665   -2.0000    0.0000 H   0  0  0  0  0  0  0  0  0  0  0  0
   20.1865   -2.6200    0.0000 H   0  0  0  0  0  0  0  0  0  0  0  0
   20.8065   -2.0000    0.0000 H   0  0  0  0  0  0  0  0  0  0  0  0
   16.1024   -2.0000    0.0000 H   0  0  0  0  0  0  0  0  0  0  0  0
   16.7224   -2.6200    0.0000 H   0  0  0  0  0  0  0  0  0  0  0  0
   17.3424   -2.0000    0.0000 H   0  0  0  0  0  0  0  0  0  0  0  0
   12.6383   -2.0000    0.0000 H   0  0  0  0  0  0  0  0  0  0  0  0
   13.2583   -2.6200    0.0000 H   0  0  0  0  0  0  0  0  0  0  0  0
   13.8783   -2.0000    0.0000 H   0  0  0  0  0  0  0  0  0  0  0  0
    7.1962    0.1200    0.0000 H   0  0  0  0  0  0  0  0  0  0  0  0
    5.8626   -0.0251    0.0000 H   0  0  0  0  0  0  0  0  0  0  0  0
    5.0656   -0.0251    0.0000 H   0  0  0  0  0  0  0  0  0  0  0  0
    9.1742   -2.0000    0.0000 H   0  0  0  0  0  0  0  0  0  0  0  0
    9.7942   -2.6200    0.0000 H   0  0  0  0  0  0  0  0  0  0  0  0
   10.4142   -2.0000    0.0000 H   0  0  0  0  0  0  0  0  0  0  0  0
    4.1996   -1.4750    0.0000 H   0  0  0  0  0  0  0  0  0  0  0  0
    4.9966   -1.4750    0.0000 H   0  0  0  0  0  0  0  0  0  0  0  0
    5.7101   -2.0000    0.0000 H   0  0  0  0  0  0  0  0  0  0  0  0
    6.3301   -2.6200    0.0000 H   0  0  0  0  0  0  0  0  0  0  0  0
    6.9501   -2.0000    0.0000 H   0  0  0  0  0  0  0  0  0  0  0  0
    3.7320    0.1200    0.0000 H   0  0  0  0  0  0  0  0  0  0  0  0
    2.3100    0.0369    0.0000 H   0  0  0  0  0  0  0  0  0  0  0  0
    1.4631   -0.1900    0.0000 H   0  0  0  0  0  0  0  0  0  0  0  0
    1.6900   -1.0369    0.0000 H   0  0  0  0  0  0  0  0  0  0  0  0
    2.2460   -2.0000    0.0000 H   0  0  0  0  0  0  0  0  0  0  0  0
    2.8660   -2.6200    0.0000 H   0  0  0  0  0  0  0  0  0  0  0  0
    3.4860   -2.0000    0.0000 H   0  0  0  0  0  0  0  0  0  0  0  0
  1  3  1  0  0  0  0
  1 64  1  0  0  0  0
  2  5  1  0  0  0  0
  2 67  1  0  0  0  0
  3  4  1  0  0  0  0
  3  7  1  0  0  0  0
  3 54  1  0  0  0  0
  4  6  2  0  0  0  0
  4  9  1  0  0  0  0
  5  6  1  0  0  0  0
  5  8  1  0  0  0  0
  5 55  1  0  0  0  0
  6 10  1  0  0  0  0
  7  8  1  0  0  0  0
  7 11  2  0  0  0  0
  8 12  2  0  0  0  0
  9 13  1  0  0  0  0
  9 56  1  0  0  0  0
  9 57  1  0  0  0  0
 10 58  1  0  0  0  0
 10 59  1  0  0  0  0
 10 60  1  0  0  0  0
 11 14  1  0  0  0  0
 11 61  1  0  0  0  0
 12 15  1  0  0  0  0
 12 62  1  0  0  0  0
 13 16  2  3  0  0  0
 13 63  1  0  0  0  0
 14 15  2  0  0  0  0
 14 65  1  0  0  0  0
 15 66  1  0  0  0  0
 16 17  1  0  0  0  0
 16 19  1  0  0  0  0
 17 18  1  0  0  0  0
 17 68  1  0  0  0  0
 17 69  1  0  0  0  0
 18 20  1  0  0  0  0
 18 70  1  0  0  0  0
 18 71  1  0  0  0  0
 19 72  1  0  0  0  0
 19 73  1  0  0  0  0
 19 74  1  0  0  0  0
 20 21  2  3  0  0  0
 20 75  1  0  0  0  0
 21 22  1  0  0  0  0
 21 25  1  0  0  0  0
 22 23  1  0  0  0  0
 22 76  1  0  0  0  0
 22 77  1  0  0  0  0
 23 27  1  0  0  0  0
 23 78  1  0  0  0  0
 23 79  1  0  0  0  0
 24 26  1  0  0  0  0
 24 28  1  0  0  0  0
 24 80  1  0  0  0  0
 24 81  1  0  0  0  0
 25 82  1  0  0  0  0
 25 83  1  0  0  0  0
 25 84  1  0  0  0  0
 26 27  2  3  0  0  0
 26 41  1  0  0  0  0
 27 85  1  0  0  0  0
 28 35  1  0  0  0  0
 28 86  1  0  0  0  0
 28 87  1  0  0  0  0
 29 30  1  0  0  0  0
 29 31  1  0  0  0  0
 29 88  1  0  0  0  0
 29 89  1  0  0  0  0
 30 36  1  0  0  0  0
 30 90  1  0  0  0  0
 30 91  1  0  0  0  0
 31 35  2  3  0  0  0
 31 42  1  0  0  0  0
 32 33  1  0  0  0  0
 32 34  1  0  0  0  0
 32 92  1  0  0  0  0
 32 93  1  0  0  0  0
 33 39  1  0  0  0  0
 33 94  1  0  0  0  0
 33 95  1  0  0  0  0
 34 36  2  3  0  0  0
 34 43  1  0  0  0  0
 35 96  1  0  0  0  0
 36 97  1  0  0  0  0
 37 38  1  0  0  0  0
 37 40  1  0  0  0  0
 37 98  1  0  0  0  0
 37 99  1  0  0  0  0
 38 39  2  3  0  0  0
 38 47  1  0  0  0  0
 39102  1  0  0  0  0
 40 44  1  0  0  0  0
 40100  1  0  0  0  0
 40101  1  0  0  0  0
 41103  1  0  0  0  0
 41104  1  0  0  0  0
 41105  1  0  0  0  0
 42106  1  0  0  0  0
 42107  1  0  0  0  0
 42108  1  0  0  0  0
 43109  1  0  0  0  0
 43110  1  0  0  0  0
 43111  1  0  0  0  0
 44 45  2  3  0  0  0
 44112  1  0  0  0  0
 45 46  1  0  0  0  0
 45 49  1  0  0  0  0
 46 48  1  0  0  0  0
 46113  1  0  0  0  0
 46114  1  0  0  0  0
 47115  1  0  0  0  0
 47116  1  0  0  0  0
 47117  1  0  0  0  0
 48 50  1  0  0  0  0
 48118  1  0  0  0  0
 48119  1  0  0  0  0
 49120  1  0  0  0  0
 49121  1  0  0  0  0
 49122  1  0  0  0  0
 50 51  2  0  0  0  0
 50123  1  0  0  0  0
 51 52  1  0  0  0  0
 51 53  1  0  0  0  0
 52124  1  0  0  0  0
 52125  1  0  0  0  0
 52126  1  0  0  0  0
 53127  1  0  0  0  0
 53128  1  0  0  0  0
 53129  1  0  0  0  0
M  END
> <PUBCHEM_COMPOUND_CID>
1069

> <PUBCHEM_COMPOUND_CANONICALIZED>
1

> <PUBCHEM_CACTVS_COMPLEXITY>
1380

> <PUBCHEM_CACTVS_HBOND_ACCEPTOR>
2

> <PUBCHEM_CACTVS_HBOND_DONOR>
2

> <PUBCHEM_CACTVS_ROTATABLE_BOND>
23

> <PUBCHEM_CACTVS_SUBSKEYS>
AAADcfB8MAAAAAAAAAAAAAAAAAAAAAAAAAAwQAAAAAAAAACBAAAAGgAACAAADBSgmAIyAIAAAgCAAiBCAAACAAAgAAAIiAAACIgINiKAERCAcAAkwAEImAfAwOAOgAAAAAAQAAAAAAAAACAAAAAAAAAAAA==

> <PUBCHEM_IUPAC_OPENEYE_NAME>
2-methyl-3-(3,7,11,15,19,23,27,31-octamethyldotriaconta-2,6,10,14,18,22,26,30-octaenyl)-1,4-dihydronaphthalene-1,4-diol

> <PUBCHEM_IUPAC_CAS_NAME>
2-methyl-3-(3,7,11,15,19,23,27,31-octamethyldotriaconta-2,6,10,14,18,22,26,30-octaenyl)-1,4-dihydronaphthalene-1,4-diol

> <PUBCHEM_IUPAC_NAME_MARKUP>
2-methyl-3-(3,7,11,15,19,23,27,31-octamethyldotriaconta-2,6,10,14,18,22,26,30-octaenyl)-1,4-dihydronaphthalene-1,4-diol

> <PUBCHEM_IUPAC_NAME>
2-methyl-3-(3,7,11,15,19,23,27,31-octamethyldotriaconta-2,6,10,14,18,22,26,30-octaenyl)-1,4-dihydronaphthalene-1,4-diol

> <PUBCHEM_IUPAC_SYSTEMATIC_NAME>
2-methyl-3-(3,7,11,15,19,23,27,31-octamethyldotriaconta-2,6,10,14,18,22,26,30-octaenyl)-1,4-dihydronaphthalene-1,4-diol

> <PUBCHEM_IUPAC_TRADITIONAL_NAME>
2-methyl-3-(3,7,11,15,19,23,27,31-octamethyldotriaconta-2,6,10,14,18,22,26,30-octaenyl)-1,4-dihydronaphthalene-1,4-diol

> <PUBCHEM_IUPAC_INCHI>
InChI=1S/C51H76O2/c1-38(2)20-13-21-39(3)22-14-23-40(4)24-15-25-41(5)26-16-27-42(6)28-17-29-43(7)30-18-31-44(8)32-19-33-45(9)36-37-47-46(10)50(52)48-34-11-12-35-49(48)51(47)53/h11-12,20,22,24,26,28,30,32,34-36,50-53H,13-19,21,23,25,27,29,31,33,37H2,1-10H3

> <PUBCHEM_IUPAC_INCHIKEY>
SCDBWOQTPYJUHA-UHFFFAOYSA-N

> <PUBCHEM_XLOGP3_AA>
15.2

> <PUBCHEM_EXACT_MASS>
720.58453166

> <PUBCHEM_MOLECULAR_FORMULA>
C51H76O2

> <PUBCHEM_MOLECULAR_WEIGHT>
721.1

> <PUBCHEM_SMILES>
CC1=C(C(C2=CC=CC=C2C1O)O)CC=C(C)CCC=C(C)CCC=C(C)CCC=C(C)CCC=C(C)CCC=C(C)CCC=C(C)CCC=C(C)C

> <PUBCHEM_CONNECTIVITY_SMILES>
CC1=C(C(C2=CC=CC=C2C1O)O)CC=C(C)CCC=C(C)CCC=C(C)CCC=C(C)CCC=C(C)CCC=C(C)CCC=C(C)CCC=C(C)C

> <PUBCHEM_CACTVS_TPSA>
40.5

> <PUBCHEM_MONOISOTOPIC_WEIGHT>
720.58453166

> <PUBCHEM_TOTAL_CHARGE>
0

> <PUBCHEM_HEAVY_ATOM_COUNT>
53

> <PUBCHEM_ATOM_DEF_STEREO_COUNT>
0

> <PUBCHEM_ATOM_UDEF_STEREO_COUNT>
2

> <PUBCHEM_BOND_DEF_STEREO_COUNT>
0

> <PUBCHEM_BOND_UDEF_STEREO_COUNT>
7

> <PUBCHEM_ISOTOPIC_ATOM_COUNT>
0

> <PUBCHEM_COMPONENT_COUNT>
1

> <PUBCHEM_CACTVS_TAUTO_COUNT>
-1

> <PUBCHEM_COORDINATE_TYPE>
1
5
255

> <PUBCHEM_BONDANNOTATIONS>
3  1  3
11  14  8
12  15  8
13  16  1
14  15  8
5  2  3
20  21  1
26  27  1
31  35  1
34  36  1
38  39  1
44  45  1
7  11  8
7  8  8
8  12  8

$$$$
