414
  -OEChem-08152602453D

 26 27  0     1  0  0  0  0  0999 V2000
   -1.3941   -2.0992   -0.4796 O   0  0  0  0  0  0  0  0  0  0  0  0
   -3.2944    0.2164   -1.0305 O   0  0  0  0  0  0  0  0  0  0  0  0
   -1.4007    1.0098    0.1201 N   0  0  0  0  0  0  0  0  0  0  0  0
    3.3612    0.0791    0.6287 N   0  0  0  0  0  0  0  0  0  0  0  0
   -0.3886    0.4731    1.0168 C   0  0  1  0  0  0  0  0  0  0  0  0
   -1.0434   -0.8099    1.5392 C   0  0  0  0  0  0  0  0  0  0  0  0
   -2.0174   -1.2289    0.4389 C   0  0  1  0  0  0  0  0  0  0  0  0
   -2.3594    0.0703   -0.2567 C   0  0  0  0  0  0  0  0  0  0  0  0
    0.9647    0.2208    0.3825 C   0  0  0  0  0  0  0  0  0  0  0  0
   -1.3818    2.3930   -0.3152 C   0  0  0  0  0  0  0  0  0  0  0  0
    1.0719   -0.0864   -0.9667 C   0  0  0  0  0  0  0  0  0  0  0  0
    2.1247    0.2917    1.1322 C   0  0  0  0  0  0  0  0  0  0  0  0
    2.3269   -0.3118   -1.5212 C   0  0  0  0  0  0  0  0  0  0  0  0
    3.4303   -0.2179   -0.6885 C   0  0  0  0  0  0  0  0  0  0  0  0
   -0.2674    1.1878    1.8409 H   0  0  0  0  0  0  0  0  0  0  0  0
   -0.3242   -1.5934    1.7997 H   0  0  0  0  0  0  0  0  0  0  0  0
   -1.6221   -0.5637    2.4392 H   0  0  0  0  0  0  0  0  0  0  0  0
   -2.9103   -1.7035    0.8554 H   0  0  0  0  0  0  0  0  0  0  0  0
   -0.4504    2.5910   -0.8515 H   0  0  0  0  0  0  0  0  0  0  0  0
   -1.4447    3.0388    0.5646 H   0  0  0  0  0  0  0  0  0  0  0  0
   -2.2295    2.5953   -0.9749 H   0  0  0  0  0  0  0  0  0  0  0  0
    0.2038   -0.1560   -1.6142 H   0  0  0  0  0  0  0  0  0  0  0  0
    2.1010    0.5263    2.1917 H   0  0  0  0  0  0  0  0  0  0  0  0
   -2.0583   -2.3482   -1.1447 H   0  0  0  0  0  0  0  0  0  0  0  0
    2.4382   -0.5528   -2.5722 H   0  0  0  0  0  0  0  0  0  0  0  0
    4.4314   -0.3845   -1.0722 H   0  0  0  0  0  0  0  0  0  0  0  0
  1  7  1  0  0  0  0
  1 24  1  0  0  0  0
  2  8  2  0  0  0  0
  3  5  1  0  0  0  0
  3  8  1  0  0  0  0
  3 10  1  0  0  0  0
  4 12  1  0  0  0  0
  4 14  2  0  0  0  0
  5  6  1  0  0  0  0
  5  9  1  0  0  0  0
  5 15  1  0  0  0  0
  6  7  1  0  0  0  0
  6 16  1  0  0  0  0
  6 17  1  0  0  0  0
  7  8  1  0  0  0  0
  7 18  1  0  0  0  0
  9 11  1  0  0  0  0
  9 12  2  0  0  0  0
 10 19  1  0  0  0  0
 10 20  1  0  0  0  0
 10 21  1  0  0  0  0
 11 13  2  0  0  0  0
 11 22  1  0  0  0  0
 12 23  1  0  0  0  0
 13 14  1  0  0  0  0
 13 25  1  0  0  0  0
 14 26  1  0  0  0  0
M  END
> <PUBCHEM_COMPOUND_CID>
414

> <PUBCHEM_CONFORMER_RMSD>
0.6

> <PUBCHEM_CONFORMER_DIVERSEORDER>
4
13
9
2
11
14
6
10
3
1
12
7
5
8

> <PUBCHEM_MMFF94_PARTIAL_CHARGES>
18
1 -0.68
10 0.3
11 -0.15
12 0.16
13 -0.15
14 0.16
2 -0.57
22 0.15
23 0.15
24 0.4
25 0.15
26 0.15
3 -0.66
4 -0.62
5 0.44
7 0.34
8 0.57
9 -0.14

> <PUBCHEM_EFFECTIVE_ROTOR_COUNT>
1.8

> <PUBCHEM_PHARMACOPHORE_FEATURES>
6
1 1 acceptor
1 1 donor
1 2 acceptor
1 4 acceptor
5 3 5 6 7 8 rings
6 4 9 11 12 13 14 rings

> <PUBCHEM_HEAVY_ATOM_COUNT>
14

> <PUBCHEM_ATOM_DEF_STEREO_COUNT>
0

> <PUBCHEM_ATOM_UDEF_STEREO_COUNT>
2

> <PUBCHEM_BOND_DEF_STEREO_COUNT>
0

> <PUBCHEM_BOND_UDEF_STEREO_COUNT>
0

> <PUBCHEM_ISOTOPIC_ATOM_COUNT>
0

> <PUBCHEM_COMPONENT_COUNT>
1

> <PUBCHEM_CACTVS_TAUTO_COUNT>
4

> <PUBCHEM_CONFORMER_ID>
0000019E00000004

> <PUBCHEM_MMFF94_ENERGY>
32.3928

> <PUBCHEM_FEATURE_SELFOVERLAP>
30.448

> <PUBCHEM_SHAPE_FINGERPRINT>
11031198 65 13695588828146842866
12138202 97 18340482262206692028
12423570 1 13651415342973960921
12716758 59 18268151967799611640
12932764 1 18339092531428469010
13024252 1 16732993050015739851
13299463 15 17988644038797344061
15207287 21 17988910176451381886
15775835 57 16008753510811768158
16945 1 18409165498024420617
18534176 82 18411420626358658351
19837323 101 18265342702927606585
20201158 50 17632858628900611526
20279233 1 18131913767225260130
20645476 183 17385443224020865739
20653085 51 15285357331749808277
21061003 4 17131560517426226360
21524375 3 17754736031296764209
23402539 116 18339908351649822653
23557571 272 18265900335600602696
23559900 14 18335693949956860208
2748010 2 18121492716144349945
369184 2 15626231190747041419
57812782 119 18202559575411188082
63268167 104 15864074282177347684
74978 22 16515976942530956818
77492 1 17313100843485935624
8030462 33 17894917321492183816
81228 2 18411144597559241585

> <PUBCHEM_SHAPE_MULTIPOLES>
266.41
4.9
1.55
1.37
2.32
0.4
0.02
-0.15
-1.08
-1.4
-0.08
0.4
-0.17
0.19

> <PUBCHEM_SHAPE_SELFOVERLAP>
565.299

> <PUBCHEM_SHAPE_VOLUME>
149.6

> <PUBCHEM_COORDINATE_TYPE>
2
5
10

$$$$
