696
  -OEChem-08152603063D

 22 21  0     1  0  0  0  0  0999 V2000
    2.9870    0.3379   -0.0537 P   0  0  0  0  0  0  0  0  0  0  0  0
    1.4029    0.3079   -0.3849 O   0  0  0  0  0  0  0  0  0  0  0  0
   -1.4514   -1.9601   -0.1886 O   0  0  0  0  0  0  0  0  0  0  0  0
   -1.4707    0.1926    1.6284 O   0  0  0  0  0  0  0  0  0  0  0  0
   -3.1804    0.8563   -1.4492 O   0  0  0  0  0  0  0  0  0  0  0  0
    3.5619   -0.9722   -0.8076 O   0  0  0  0  0  0  0  0  0  0  0  0
    3.0367   -0.0798    1.5077 O   0  0  0  0  0  0  0  0  0  0  0  0
   -3.9230    0.3363    0.6301 O   0  0  0  0  0  0  0  0  0  0  0  0
    3.6803    1.6263   -0.3874 O   0  0  0  0  0  0  0  0  0  0  0  0
   -0.7957   -0.7245   -0.4728 C   0  0  1  0  0  0  0  0  0  0  0  0
   -1.5274    0.4306    0.2231 C   0  0  1  0  0  0  0  0  0  0  0  0
    0.6750   -0.8749   -0.0983 C   0  0  0  0  0  0  0  0  0  0  0  0
   -2.9954    0.5237   -0.1466 C   0  0  0  0  0  0  0  0  0  0  0  0
   -0.8656   -0.5620   -1.5556 H   0  0  0  0  0  0  0  0  0  0  0  0
   -1.0472    1.3938    0.0215 H   0  0  0  0  0  0  0  0  0  0  0  0
    1.1092   -1.7125   -0.6558 H   0  0  0  0  0  0  0  0  0  0  0  0
    0.7700   -1.1215    0.9650 H   0  0  0  0  0  0  0  0  0  0  0  0
   -1.0100   -2.6548   -0.7065 H   0  0  0  0  0  0  0  0  0  0  0  0
   -1.8214    0.9835    2.0727 H   0  0  0  0  0  0  0  0  0  0  0  0
   -4.1319    0.9202   -1.6790 H   0  0  0  0  0  0  0  0  0  0  0  0
    4.5294   -1.1337   -0.8071 H   0  0  0  0  0  0  0  0  0  0  0  0
    3.8953   -0.0468    1.9807 H   0  0  0  0  0  0  0  0  0  0  0  0
  1  2  1  0  0  0  0
  1  6  1  0  0  0  0
  1  7  1  0  0  0  0
  1  9  2  0  0  0  0
  2 12  1  0  0  0  0
  3 10  1  0  0  0  0
  3 18  1  0  0  0  0
  4 11  1  0  0  0  0
  4 19  1  0  0  0  0
  5 13  1  0  0  0  0
  5 20  1  0  0  0  0
  6 21  1  0  0  0  0
  7 22  1  0  0  0  0
  8 13  2  0  0  0  0
 10 11  1  0  0  0  0
 10 12  1  0  0  0  0
 10 14  1  0  0  0  0
 11 13  1  0  0  0  0
 11 15  1  0  0  0  0
 12 16  1  0  0  0  0
 12 17  1  0  0  0  0
M  END
> <PUBCHEM_COMPOUND_CID>
696

> <PUBCHEM_CONFORMER_RMSD>
0.6

> <PUBCHEM_CONFORMER_DIVERSEORDER>
35
137
138
119
56
123
132
13
31
113
144
107
152
93
76
96
151
131
103
18
120
1
77
111
153
92
124
46
106
23
145
70
51
95
115
60
53
11
98
47
135
37
32
84
134
38
99
94
65
97
55
154
122
108
19
45
150
121
6
118
148
86
104
63
16
81
67
20
48
57
87
101
139
12
82
69
4
52
49
149
17
75
68
21
140
66
39
80
89
127
34
147
129
130
71
83
33
72
64
8
74
43
61
100
9
126
141
26
78
24
112
102
114
116
14
7
85
143
128
41
136
54
110
117
50
25
42
59
15
62
22
105
2
58
40
90
91
73
79
27
29
36
146
5
133
109
3
10
142
88
44
28
125
30

> <PUBCHEM_MMFF94_PARTIAL_CHARGES>
18
1 1.51
10 0.28
11 0.34
12 0.28
13 0.66
18 0.4
19 0.4
2 -0.55
20 0.5
21 0.5
22 0.5
3 -0.68
4 -0.68
5 -0.65
6 -0.77
7 -0.77
8 -0.57
9 -0.7

> <PUBCHEM_EFFECTIVE_ROTOR_COUNT>
5

> <PUBCHEM_PHARMACOPHORE_FEATURES>
11
1 3 acceptor
1 3 donor
1 4 acceptor
1 4 donor
1 5 acceptor
1 6 acceptor
1 7 acceptor
1 8 acceptor
1 9 acceptor
3 5 8 13 anion
4 1 6 7 9 anion

> <PUBCHEM_HEAVY_ATOM_COUNT>
13

> <PUBCHEM_ATOM_DEF_STEREO_COUNT>
0

> <PUBCHEM_ATOM_UDEF_STEREO_COUNT>
2

> <PUBCHEM_BOND_DEF_STEREO_COUNT>
0

> <PUBCHEM_BOND_UDEF_STEREO_COUNT>
0

> <PUBCHEM_ISOTOPIC_ATOM_COUNT>
0

> <PUBCHEM_COMPONENT_COUNT>
1

> <PUBCHEM_CACTVS_TAUTO_COUNT>
1

> <PUBCHEM_CONFORMER_ID>
000002B800000023

> <PUBCHEM_MMFF94_ENERGY>
-16.897

> <PUBCHEM_FEATURE_SELFOVERLAP>
55.936

> <PUBCHEM_SHAPE_FINGERPRINT>
12251169 10 15719682033987054108
12932764 1 17749384880060579462
14325111 11 18412829096453603966
15775835 57 18335140929371799320
18186145 218 18201436935078607223
20281407 28 8790879692246513597
20653085 51 18408326591990081335
20871999 31 15697700555382420933
21028194 46 17917433081592391734
21119208 17 15051737473341139233
22096605 113 15769194172536772570
22485316 2 8862936156782070917
23402539 116 16702014232314301076
23402655 69 16917073213407373928
3248919 1 18060421322195625158
528716 315 16415476069383140381
57812782 119 14045740404898072360
8030462 33 17203335515690811514

> <PUBCHEM_SHAPE_MULTIPOLES>
224.43
7.07
1.29
1.14
1.73
0.34
-0.25
-2.05
0.49
0.29
0.21
-0.18
-0.16
0.08

> <PUBCHEM_SHAPE_SELFOVERLAP>
418.753

> <PUBCHEM_SHAPE_VOLUME>
140.4

> <PUBCHEM_COORDINATE_TYPE>
2
5
10

$$$$
