145
  -OEChem-08152602253D

 21 20  0     1  0  0  0  0  0999 V2000
    0.3127    2.1804    0.3315 O   0  0  0  0  0  0  0  0  0  0  0  0
    2.1166    0.4693    1.6711 O   0  0  0  0  0  0  0  0  0  0  0  0
    2.7520   -0.5741   -1.7129 O   0  0  0  0  0  0  0  0  0  0  0  0
   -2.0093    1.3228   -0.7340 O   0  0  0  0  0  0  0  0  0  0  0  0
    2.9750   -1.6576    0.2687 O   0  0  0  0  0  0  0  0  0  0  0  0
   -4.0282   -0.2257   -0.2881 O   0  0  0  0  0  0  0  0  0  0  0  0
   -2.6534   -1.7930    0.6508 O   0  0  0  0  0  0  0  0  0  0  0  0
    0.6857    0.9148   -0.2237 C   0  0  1  0  0  0  0  0  0  0  0  0
    2.1109    0.6149    0.2572 C   0  0  2  0  0  0  0  0  0  0  0  0
   -0.3376   -0.1359    0.2185 C   0  0  0  0  0  0  0  0  0  0  0  0
   -1.7367    0.2610   -0.1925 C   0  0  0  0  0  0  0  0  0  0  0  0
    2.6612   -0.6557   -0.3607 C   0  0  0  0  0  0  0  0  0  0  0  0
   -2.8489   -0.7212    0.1142 C   0  0  0  0  0  0  0  0  0  0  0  0
    0.6635    1.0240   -1.3139 H   0  0  0  0  0  0  0  0  0  0  0  0
    2.7828    1.4467    0.0173 H   0  0  0  0  0  0  0  0  0  0  0  0
   -0.3470   -0.2326    1.3100 H   0  0  0  0  0  0  0  0  0  0  0  0
   -0.1053   -1.1072   -0.2296 H   0  0  0  0  0  0  0  0  0  0  0  0
    0.3387    2.0983    1.3003 H   0  0  0  0  0  0  0  0  0  0  0  0
    3.0440    0.3929    1.9540 H   0  0  0  0  0  0  0  0  0  0  0  0
    3.0984   -1.4030   -2.1069 H   0  0  0  0  0  0  0  0  0  0  0  0
   -4.7713   -0.8388   -0.1028 H   0  0  0  0  0  0  0  0  0  0  0  0
  1  8  1  0  0  0  0
  1 18  1  0  0  0  0
  2  9  1  0  0  0  0
  2 19  1  0  0  0  0
  3 12  1  0  0  0  0
  3 20  1  0  0  0  0
  4 11  2  0  0  0  0
  5 12  2  0  0  0  0
  6 13  1  0  0  0  0
  6 21  1  0  0  0  0
  7 13  2  0  0  0  0
  8  9  1  0  0  0  0
  8 10  1  0  0  0  0
  8 14  1  0  0  0  0
  9 12  1  0  0  0  0
  9 15  1  0  0  0  0
 10 11  1  0  0  0  0
 10 16  1  0  0  0  0
 10 17  1  0  0  0  0
 11 13  1  0  0  0  0
M  END
> <PUBCHEM_COMPOUND_CID>
145

> <PUBCHEM_CONFORMER_RMSD>
0.6

> <PUBCHEM_CONFORMER_DIVERSEORDER>
22
127
72
68
102
105
40
148
130
114
82
2
79
35
124
144
32
128
98
140
146
111
38
116
109
110
60
138
28
63
65
44
7
113
51
133
1
75
93
37
145
11
19
85
119
53
4
123
136
97
83
54
59
143
76
18
99
55
126
137
20
139
42
87
77
125
108
29
49
80
26
103
88
89
129
149
25
96
27
24
23
106
117
16
78
142
58
41
112
101
48
141
5
121
90
95
104
67
91
107
45
100
71
61
39
94
66
31
14
52
132
62
134
17
74
8
36
131
3
115
34
135
73
12
57
147
10
70
15
30
120
84
50
9
118
46
47
122
81
13
92
21
64
33
69
6
56
86
43

> <PUBCHEM_MMFF94_PARTIAL_CHARGES>
17
1 -0.68
10 0.06
11 0.51
12 0.66
13 0.72
18 0.4
19 0.4
2 -0.68
20 0.5
21 0.5
3 -0.65
4 -0.57
5 -0.57
6 -0.65
7 -0.57
8 0.28
9 0.34

> <PUBCHEM_EFFECTIVE_ROTOR_COUNT>
5

> <PUBCHEM_PHARMACOPHORE_FEATURES>
11
1 1 acceptor
1 1 donor
1 2 acceptor
1 2 donor
1 3 acceptor
1 4 acceptor
1 5 acceptor
1 6 acceptor
1 7 acceptor
3 3 5 12 anion
3 6 7 13 anion

> <PUBCHEM_HEAVY_ATOM_COUNT>
13

> <PUBCHEM_ATOM_DEF_STEREO_COUNT>
0

> <PUBCHEM_ATOM_UDEF_STEREO_COUNT>
2

> <PUBCHEM_BOND_DEF_STEREO_COUNT>
0

> <PUBCHEM_BOND_UDEF_STEREO_COUNT>
0

> <PUBCHEM_ISOTOPIC_ATOM_COUNT>
0

> <PUBCHEM_COMPONENT_COUNT>
1

> <PUBCHEM_CACTVS_TAUTO_COUNT>
2

> <PUBCHEM_CONFORMER_ID>
0000009100000016

> <PUBCHEM_MMFF94_ENERGY>
16.3452

> <PUBCHEM_FEATURE_SELFOVERLAP>
55.972

> <PUBCHEM_SHAPE_FINGERPRINT>
12251169 10 12103564143562746294
12716758 59 18262790744918586129
12932764 1 16988840613632271513
13296908 3 18342734109138403853
14252887 29 17988650704876893582
15775835 57 11746943095996161610
19766037 51 18338252529861133551
20201158 50 18411420604894670175
20279233 1 18409441518408554523
20281407 28 18335144219343050403
20645476 183 16298386885491993931
20645477 70 18131067143060909047
20711983 138 18343022159978979273
20711985 344 17983873189304555080
20715346 28 18201709665444062609
23557571 272 17531514439061557524
7364860 26 18196656413166811532
8030462 33 16515400750771557233
81228 2 17842560630603761320

> <PUBCHEM_SHAPE_MULTIPOLES>
226.45
5.81
1.61
1.04
2.57
0.16
0.02
-2.4
0.47
-0.05
-0.16
-0.79
-0.03
0.63

> <PUBCHEM_SHAPE_SELFOVERLAP>
447.414

> <PUBCHEM_SHAPE_VOLUME>
132.7

> <PUBCHEM_COORDINATE_TYPE>
2
5
10

$$$$
