63
  -OEChem-08152602193D

 21 20  0     1  0  0  0  0  0999 V2000
    2.0268    1.5420   -0.4155 O   0  0  0  0  0  0  0  0  0  0  0  0
    2.8178   -0.3524    0.5459 O   0  0  0  0  0  0  0  0  0  0  0  0
   -2.3784   -0.0762   -1.2661 N   0  0  0  0  0  0  0  0  0  0  0  0
    0.6033   -1.7541    0.0337 N   0  0  0  0  0  0  0  0  0  0  0  0
   -0.5645    0.3694    0.3852 C   0  0  0  0  0  0  0  0  0  0  0  0
   -1.9803   -0.1891    0.1369 C   0  0  1  0  0  0  0  0  0  0  0  0
    0.5617   -0.3468   -0.3757 C   0  0  1  0  0  0  0  0  0  0  0  0
   -3.0037    0.5637    0.9877 C   0  0  0  0  0  0  0  0  0  0  0  0
    1.9174    0.2436   -0.0321 C   0  0  0  0  0  0  0  0  0  0  0  0
   -0.5500    1.4358    0.1202 H   0  0  0  0  0  0  0  0  0  0  0  0
   -0.3521    0.3368    1.4635 H   0  0  0  0  0  0  0  0  0  0  0  0
   -2.0140   -1.2466    0.4210 H   0  0  0  0  0  0  0  0  0  0  0  0
    0.4226   -0.2907   -1.4600 H   0  0  0  0  0  0  0  0  0  0  0  0
   -3.0294    1.6310    0.7399 H   0  0  0  0  0  0  0  0  0  0  0  0
   -4.0118    0.1584    0.8446 H   0  0  0  0  0  0  0  0  0  0  0  0
   -2.7614    0.4724    2.0521 H   0  0  0  0  0  0  0  0  0  0  0  0
   -2.3742    0.9031   -1.5494 H   0  0  0  0  0  0  0  0  0  0  0  0
   -3.3378   -0.4008   -1.3810 H   0  0  0  0  0  0  0  0  0  0  0  0
    0.7729   -1.8241    1.0363 H   0  0  0  0  0  0  0  0  0  0  0  0
    1.3787   -2.2274   -0.4285 H   0  0  0  0  0  0  0  0  0  0  0  0
    2.9002    1.9207   -0.1790 H   0  0  0  0  0  0  0  0  0  0  0  0
  1  9  1  0  0  0  0
  1 21  1  0  0  0  0
  2  9  2  0  0  0  0
  3  6  1  0  0  0  0
  3 17  1  0  0  0  0
  3 18  1  0  0  0  0
  4  7  1  0  0  0  0
  4 19  1  0  0  0  0
  4 20  1  0  0  0  0
  5  6  1  0  0  0  0
  5  7  1  0  0  0  0
  5 10  1  0  0  0  0
  5 11  1  0  0  0  0
  6  8  1  0  0  0  0
  6 12  1  0  0  0  0
  7  9  1  0  0  0  0
  7 13  1  0  0  0  0
  8 14  1  0  0  0  0
  8 15  1  0  0  0  0
  8 16  1  0  0  0  0
M  END
> <PUBCHEM_COMPOUND_CID>
63

> <PUBCHEM_CONFORMER_RMSD>
0.6

> <PUBCHEM_CONFORMER_DIVERSEORDER>
11
26
18
30
32
28
15
19
8
29
12
20
21
31
2
23
7
9
33
27
1
17
4
3
6
24
25
14
13
22
5
16
10

> <PUBCHEM_MMFF94_PARTIAL_CHARGES>
12
1 -0.65
17 0.36
18 0.36
19 0.36
2 -0.57
20 0.36
21 0.5
3 -0.99
4 -0.99
6 0.27
7 0.33
9 0.66

> <PUBCHEM_EFFECTIVE_ROTOR_COUNT>
3

> <PUBCHEM_PHARMACOPHORE_FEATURES>
7
1 1 acceptor
1 2 acceptor
1 3 cation
1 3 donor
1 4 cation
1 4 donor
3 1 2 9 anion

> <PUBCHEM_HEAVY_ATOM_COUNT>
9

> <PUBCHEM_ATOM_DEF_STEREO_COUNT>
0

> <PUBCHEM_ATOM_UDEF_STEREO_COUNT>
2

> <PUBCHEM_BOND_DEF_STEREO_COUNT>
0

> <PUBCHEM_BOND_UDEF_STEREO_COUNT>
0

> <PUBCHEM_ISOTOPIC_ATOM_COUNT>
0

> <PUBCHEM_COMPONENT_COUNT>
1

> <PUBCHEM_CACTVS_TAUTO_COUNT>
1

> <PUBCHEM_CONFORMER_ID>
0000003F0000000B

> <PUBCHEM_MMFF94_ENERGY>
1.6919

> <PUBCHEM_FEATURE_SELFOVERLAP>
35.579

> <PUBCHEM_SHAPE_FINGERPRINT>
10857977 72 16153717556614401825
12932741 1 17022615381801887957
12932764 1 17458345255630922427
14325111 11 18411422846809212712
14390081 3 17060339600192186041
21040471 1 18269559497518252298
23211744 41 17603303773631142467
23235685 24 18410581690380835056
23552423 10 18059300855206342303
29004967 10 18187090511754501987
3248919 1 18272932734572665319
5084963 1 18342727542228262852

> <PUBCHEM_SHAPE_MULTIPOLES>
163.52
4.39
1.18
0.92
0.85
0.15
-0.13
-0.88
0.52
-0.5
-0.01
0.49
-0.03
-0.47

> <PUBCHEM_SHAPE_SELFOVERLAP>
302.259

> <PUBCHEM_SHAPE_VOLUME>
103.5

> <PUBCHEM_COORDINATE_TYPE>
2
5
10

$$$$
