95
  -OEChem-08152602213D

 23 22  0     1  0  0  0  0  0999 V2000
    1.6750    1.1443   -1.4486 O   0  0  0  0  0  0  0  0  0  0  0  0
    1.5575    1.1710    1.4254 O   0  0  0  0  0  0  0  0  0  0  0  0
    3.6116   -1.4736   -0.0930 O   0  0  0  0  0  0  0  0  0  0  0  0
   -1.1312   -1.8103   -0.4719 O   0  0  0  0  0  0  0  0  0  0  0  0
   -0.9073    1.4793   -0.9372 O   0  0  0  0  0  0  0  0  0  0  0  0
   -2.9264    0.9238    1.0118 O   0  0  0  0  0  0  0  0  0  0  0  0
   -3.6406   -0.8800   -0.1663 O   0  0  0  0  0  0  0  0  0  0  0  0
    1.0715    0.1257   -0.6672 C   0  0  1  0  0  0  0  0  0  0  0  0
    1.7905   -0.0262    0.6789 C   0  0  1  0  0  0  0  0  0  0  0  0
   -0.4108    0.4425   -0.4934 C   0  0  0  0  0  0  0  0  0  0  0  0
    3.2999   -0.2753    0.6044 C   0  0  0  0  0  0  0  0  0  0  0  0
   -1.2620   -0.5884    0.2290 C   0  0  1  0  0  0  0  0  0  0  0  0
   -2.7275   -0.2329    0.3281 C   0  0  0  0  0  0  0  0  0  0  0  0
    1.1580   -0.8050   -1.2388 H   0  0  0  0  0  0  0  0  0  0  0  0
    1.3459   -0.8567    1.2392 H   0  0  0  0  0  0  0  0  0  0  0  0
    3.7259   -0.3365    1.6122 H   0  0  0  0  0  0  0  0  0  0  0  0
    3.8077    0.5572    0.1055 H   0  0  0  0  0  0  0  0  0  0  0  0
   -0.8944   -0.7343    1.2482 H   0  0  0  0  0  0  0  0  0  0  0  0
    1.2654    1.1192   -2.3304 H   0  0  0  0  0  0  0  0  0  0  0  0
    0.6239    1.1816    1.6952 H   0  0  0  0  0  0  0  0  0  0  0  0
    3.1506   -2.2011    0.3582 H   0  0  0  0  0  0  0  0  0  0  0  0
   -1.4859   -1.6832   -1.3688 H   0  0  0  0  0  0  0  0  0  0  0  0
   -3.8772    1.1600    1.0619 H   0  0  0  0  0  0  0  0  0  0  0  0
  1  8  1  0  0  0  0
  1 19  1  0  0  0  0
  2  9  1  0  0  0  0
  2 20  1  0  0  0  0
  3 11  1  0  0  0  0
  3 21  1  0  0  0  0
  4 12  1  0  0  0  0
  4 22  1  0  0  0  0
  5 10  2  0  0  0  0
  6 13  1  0  0  0  0
  6 23  1  0  0  0  0
  7 13  2  0  0  0  0
  8  9  1  0  0  0  0
  8 10  1  0  0  0  0
  8 14  1  0  0  0  0
  9 11  1  0  0  0  0
  9 15  1  0  0  0  0
 10 12  1  0  0  0  0
 11 16  1  0  0  0  0
 11 17  1  0  0  0  0
 12 13  1  0  0  0  0
 12 18  1  0  0  0  0
M  END
> <PUBCHEM_COMPOUND_CID>
95

> <PUBCHEM_CONFORMER_RMSD>
0.8

> <PUBCHEM_CONFORMER_DIVERSEORDER>
117
1139
960
909
290
1062
80
741
89
965
450
417
432
565
399
724
520
288
1016
40
617
258
660
48
452
1084
1107
24
1075
431
834
177
1090
859
45
62
57
179
628
405
993
235
483
1106
76
1037
104
354
502
202
840
634
366
274
129
756
13
1129
41
488
552
752
32
50
287
160
536
527
727
322
921
77
72
407
380
172
475
621
955
979
28
600
898
645
188
108
538
43
199
1
528
19
229
79
925
813
419
35
128
914
3
499
597
957
25
486
1134
90
1049
580
184
336
650
222
59
798
116
476
1012
738
196
750
6
897
2
373
626
1082
132
372
766
280
11
327
868
200
203
201
67
654
22
170
238
424
847
356
254
811
339
53
124
107
397
395
517
225
5
205
9
318
910
18
632
51
771
299
68
232
630
1009
1081
243
385
23
103
934
70
823
88
1050
903
74
434
257
599
29
227
589
105
1017
187
855
208
643
83
295
949
469
20
99
14
1020
885
610
481
7

> <PUBCHEM_MMFF94_PARTIAL_CHARGES>
18
1 -0.68
10 0.45
11 0.28
12 0.4
13 0.66
19 0.4
2 -0.68
20 0.4
21 0.4
22 0.4
23 0.5
3 -0.68
4 -0.68
5 -0.57
6 -0.65
7 -0.57
8 0.34
9 0.28

> <PUBCHEM_EFFECTIVE_ROTOR_COUNT>
5

> <PUBCHEM_PHARMACOPHORE_FEATURES>
13
1 1 acceptor
1 1 donor
1 12 anion
1 2 acceptor
1 2 donor
1 3 acceptor
1 3 donor
1 4 acceptor
1 4 donor
1 5 acceptor
1 6 acceptor
1 7 acceptor
3 6 7 13 anion

> <PUBCHEM_HEAVY_ATOM_COUNT>
13

> <PUBCHEM_ATOM_DEF_STEREO_COUNT>
0

> <PUBCHEM_ATOM_UDEF_STEREO_COUNT>
3

> <PUBCHEM_BOND_DEF_STEREO_COUNT>
0

> <PUBCHEM_BOND_UDEF_STEREO_COUNT>
0

> <PUBCHEM_ISOTOPIC_ATOM_COUNT>
0

> <PUBCHEM_COMPONENT_COUNT>
1

> <PUBCHEM_CACTVS_TAUTO_COUNT>
41

> <PUBCHEM_CONFORMER_ID>
0000005F00000075

> <PUBCHEM_MMFF94_ENERGY>
11.6193

> <PUBCHEM_FEATURE_SELFOVERLAP>
66.315

> <PUBCHEM_SHAPE_FINGERPRINT>
12251169 10 18060129994310710490
124424 183 17703504394200150608
12897270 3 11891330945828597394
12932764 1 17917440881558988847
13581323 91 18272930552702996043
15310529 11 12829474948535116874
16945 1 17458343026600814163
17834069 15 18271807861062662817
18511873 20 18059857233759444066
19422 9 18114474434497576499
20281407 28 18260828172518608506
20361792 2 17385713716671014526
20645464 45 17489591160163413639
20671657 53 16950557775069066300
20711985 344 16806431527299631093
21293036 1 14129069105701817866
230 275 13183027340889964160
23402539 116 17203317893809430061
3286 77 18059849584464751195
369184 2 17775278400279850395
449060 23 17894632513536624122
5084963 1 18334856108478246219
57812782 119 17132115745128617363
7364860 26 18189339133609354276

> <PUBCHEM_SHAPE_MULTIPOLES>
226.45
5.52
1.4
1.12
0.04
0.12
0.07
1.68
1
-0.05
-0.26
-0.3
-0.4
-0.19

> <PUBCHEM_SHAPE_SELFOVERLAP>
441.257

> <PUBCHEM_SHAPE_VOLUME>
135

> <PUBCHEM_COORDINATE_TYPE>
2
5
10

$$$$
