306
  -OEChem-08152602363D

 26 26  0     1  0  0  0  0  0999 V2000
    1.2928    1.1900   -0.3853 O   0  0  0  0  0  0  0  0  0  0  0  0
   -1.4729    3.0919    0.6869 O   0  0  0  0  0  0  0  0  0  0  0  0
   -3.2096   -2.1089    0.2478 O   0  0  0  0  0  0  0  0  0  0  0  0
   -1.0813   -2.8609    0.6157 O   0  0  0  0  0  0  0  0  0  0  0  0
    2.0653   -0.9415   -1.6484 O   0  0  0  0  0  0  0  0  0  0  0  0
    3.5542   -1.5094   -0.0287 O   0  0  0  0  0  0  0  0  0  0  0  0
    0.1096    1.2935    0.4087 C   0  0  1  0  0  0  0  0  0  0  0  0
   -0.8999    2.2292   -0.2983 C   0  0  1  0  0  0  0  0  0  0  0  0
   -0.3809   -0.1116    0.6383 C   0  0  0  0  0  0  0  0  0  0  0  0
   -2.0246    1.5239   -1.0044 C   0  0  0  0  0  0  0  0  0  0  0  0
   -1.4947   -0.5867    0.0612 C   0  0  0  0  0  0  0  0  0  0  0  0
   -2.2848    0.2206   -0.8337 C   0  0  0  0  0  0  0  0  0  0  0  0
   -1.8702   -1.9749    0.3416 C   0  0  0  0  0  0  0  0  0  0  0  0
    2.2485    0.4653    0.2403 C   0  0  0  0  0  0  0  0  0  0  0  0
    2.6989   -0.7545   -0.4690 C   0  0  0  0  0  0  0  0  0  0  0  0
    2.7497    0.8340    1.4273 C   0  0  0  0  0  0  0  0  0  0  0  0
    0.3383    1.7404    1.3849 H   0  0  0  0  0  0  0  0  0  0  0  0
   -0.3801    2.8635   -1.0265 H   0  0  0  0  0  0  0  0  0  0  0  0
    0.1779   -0.7397    1.3285 H   0  0  0  0  0  0  0  0  0  0  0  0
   -2.6482    2.1081   -1.6752 H   0  0  0  0  0  0  0  0  0  0  0  0
   -3.1039   -0.2314   -1.3830 H   0  0  0  0  0  0  0  0  0  0  0  0
   -0.7595    3.6551    1.0332 H   0  0  0  0  0  0  0  0  0  0  0  0
    2.4417    1.7450    1.9284 H   0  0  0  0  0  0  0  0  0  0  0  0
    3.5135    0.2446    1.9245 H   0  0  0  0  0  0  0  0  0  0  0  0
   -3.5018   -3.0277    0.4290 H   0  0  0  0  0  0  0  0  0  0  0  0
    2.3721   -1.7529   -2.1064 H   0  0  0  0  0  0  0  0  0  0  0  0
  1  7  1  0  0  0  0
  1 14  1  0  0  0  0
  2  8  1  0  0  0  0
  2 22  1  0  0  0  0
  3 13  1  0  0  0  0
  3 25  1  0  0  0  0
  4 13  2  0  0  0  0
  5 15  1  0  0  0  0
  5 26  1  0  0  0  0
  6 15  2  0  0  0  0
  7  8  1  0  0  0  0
  7  9  1  0  0  0  0
  7 17  1  0  0  0  0
  8 10  1  0  0  0  0
  8 18  1  0  0  0  0
  9 11  2  0  0  0  0
  9 19  1  0  0  0  0
 10 12  2  0  0  0  0
 10 20  1  0  0  0  0
 11 12  1  0  0  0  0
 11 13  1  0  0  0  0
 12 21  1  0  0  0  0
 14 15  1  0  0  0  0
 14 16  2  0  0  0  0
 16 23  1  0  0  0  0
 16 24  1  0  0  0  0
M  END
> <PUBCHEM_COMPOUND_CID>
306

> <PUBCHEM_CONFORMER_RMSD>
0.6

> <PUBCHEM_CONFORMER_DIVERSEORDER>
1
35
44
23
39
31
15
4
30
26
36
14
46
33
32
40
38
17
42
24
13
27
43
37
41
10
28
21
2
48
19
20
8
5
29
18
7
45
6
34
22
47
25
11
16
9
12
3

> <PUBCHEM_MMFF94_PARTIAL_CHARGES>
24
1 -0.36
10 -0.29
11 0.01
12 -0.15
13 0.71
14 0.09
15 0.71
16 -0.3
19 0.15
2 -0.68
20 0.15
21 0.15
22 0.4
23 0.15
24 0.15
25 0.5
26 0.5
3 -0.65
4 -0.57
5 -0.65
6 -0.57
7 0.42
8 0.42
9 -0.29

> <PUBCHEM_EFFECTIVE_ROTOR_COUNT>
4.4

> <PUBCHEM_PHARMACOPHORE_FEATURES>
10
1 1 acceptor
1 2 acceptor
1 2 donor
1 3 acceptor
1 4 acceptor
1 5 acceptor
1 6 acceptor
3 3 4 13 anion
3 5 6 15 anion
6 7 8 9 10 11 12 rings

> <PUBCHEM_HEAVY_ATOM_COUNT>
16

> <PUBCHEM_ATOM_DEF_STEREO_COUNT>
0

> <PUBCHEM_ATOM_UDEF_STEREO_COUNT>
2

> <PUBCHEM_BOND_DEF_STEREO_COUNT>
0

> <PUBCHEM_BOND_UDEF_STEREO_COUNT>
0

> <PUBCHEM_ISOTOPIC_ATOM_COUNT>
0

> <PUBCHEM_COMPONENT_COUNT>
1

> <PUBCHEM_CACTVS_TAUTO_COUNT>
1

> <PUBCHEM_CONFORMER_ID>
0000013200000001

> <PUBCHEM_MMFF94_ENERGY>
43.4824

> <PUBCHEM_FEATURE_SELFOVERLAP>
50.873

> <PUBCHEM_SHAPE_FINGERPRINT>
11322862 65 18265904561927348383
12532896 13 18053379899044041145
12553582 1 18049163572657006215
12716758 59 18337100172908242248
15279308 132 18052818044549646120
16945 1 18261946367090760525
17990270 104 17761780958482655691
19049666 15 18200307711109683522
20645476 183 17604430674196793231
20645477 70 17183337860283158187
20711985 344 18335993007669902355
20871998 22 18265617778334305411
21061003 4 17772188871184690000
21524375 3 17625541185940101217
21665056 4 18120093879397357003
22721475 48 18120374512771552251
22802520 49 18343298141412943264
23526113 38 18125973118811928549
23557571 272 18337390551710977088
23558518 356 18128524986115328953
23559900 14 18053661375091708246
2748010 2 18340201989720545399
576247 118 18050598366558906335
7364860 26 17474675426097474201
74978 22 18262516988182807148
81228 2 18334860536668935817
8809292 202 18340485565258036646
9709674 26 18272080557521930878

> <PUBCHEM_SHAPE_MULTIPOLES>
294.06
4.71
2.95
1.1
2.6
0.01
0.13
1.89
0.18
-2.12
-0.51
0.41
-0.07
0.9

> <PUBCHEM_SHAPE_SELFOVERLAP>
614.613

> <PUBCHEM_SHAPE_VOLUME>
164.9

> <PUBCHEM_COORDINATE_TYPE>
2
5
10

$$$$
