539
  -OEChem-08152602552D

128131  0     1  0  0  0  0  0999 V2000
    8.7784    0.3131    0.0000 Co  0  0  0  0  0  0  0  0  0  0  0  0
   10.0750   -5.0407    0.0000 O   0  0  0  0  0  0  0  0  0  0  0  0
   12.6697   -1.9168    0.0000 O   0  0  0  0  0  0  0  0  0  0  0  0
    8.4884   -4.3460    0.0000 O   0  0  0  0  0  0  0  0  0  0  0  0
   10.9756    4.1238    0.0000 O   0  0  0  0  0  0  0  0  0  0  0  0
    6.2979   -5.3122    0.0000 O   0  0  0  0  0  0  0  0  0  0  0  0
   15.1367    1.2219    0.0000 O   0  0  0  0  0  0  0  0  0  0  0  0
    8.0200   -5.4968    0.0000 O   0  0  0  0  0  0  0  0  0  0  0  0
   14.0877    2.6002    0.0000 O   0  0  0  0  0  0  0  0  0  0  0  0
    2.4934   -0.6371    0.0000 O   0  0  0  0  0  0  0  0  0  0  0  0
    3.5421   -2.0156    0.0000 O   0  0  0  0  0  0  0  0  0  0  0  0
    5.1348    4.4876    0.0000 O   0  0  0  0  0  0  0  0  0  0  0  0
    6.5299    5.5142    0.0000 O   0  0  0  0  0  0  0  0  0  0  0  0
    8.8152   -1.0242    0.0000 N   0  0  0  0  0  0  0  0  0  0  0  0
   10.2411    0.2762    0.0000 N   0  0  0  0  0  0  0  0  0  0  0  0
    7.3875    0.2762    0.0000 N   0  0  0  0  0  0  0  0  0  0  0  0
    8.7834    1.5766    0.0000 N   0  0  0  0  0  0  0  0  0  0  0  0
   14.1848   -1.0775    0.0000 N   0  0  0  0  0  0  0  0  0  0  0  0
   10.0872    5.6107    0.0000 N   0  0  0  0  0  0  0  0  0  0  0  0
   10.8119   -0.4217    0.0000 C   0  0  3  0  0  0  0  0  0  0  0  0
    9.5766   -1.5950    0.0000 C   0  0  3  0  0  0  0  0  0  0  0  0
   11.7005   -0.1674    0.0000 C   0  0  3  0  0  0  0  0  0  0  0  0
    9.2905   -2.5139    0.0000 C   0  0  3  0  0  0  0  0  0  0  0  0
    8.0536   -1.6268    0.0000 C   0  0  0  0  0  0  0  0  0  0  0  0
    8.3398   -2.5139    0.0000 C   0  0  3  0  0  0  0  0  0  0  0  0
    6.8486   -0.4535    0.0000 C   0  0  3  0  0  0  0  0  0  0  0  0
   11.7005    0.7833    0.0000 C   0  0  3  0  0  0  0  0  0  0  0  0
   10.7801    1.0376    0.0000 C   0  0  0  0  0  0  0  0  0  0  0  0
    7.1347   -1.3406    0.0000 C   0  0  3  0  0  0  0  0  0  0  0  0
    6.8486    1.0058    0.0000 C   0  0  0  0  0  0  0  0  0  0  0  0
    5.9298   -0.1992    0.0000 C   0  0  3  0  0  0  0  0  0  0  0  0
    5.9298    0.7514    0.0000 C   0  0  0  0  0  0  0  0  0  0  0  0
    9.5766    2.2109    0.0000 C   0  0  0  0  0  0  0  0  0  0  0  0
    8.0218    2.1791    0.0000 C   0  0  0  0  0  0  0  0  0  0  0  0
   11.3081   -1.2899    0.0000 C   0  0  0  0  0  0  0  0  0  0  0  0
    9.2587    3.0980    0.0000 C   0  0  3  0  0  0  0  0  0  0  0  0
   10.4955    1.9247    0.0000 C   0  0  0  0  0  0  0  0  0  0  0  0
    7.1030    1.9247    0.0000 C   0  0  0  0  0  0  0  0  0  0  0  0
    8.3080    3.0980    0.0000 C   0  0  3  0  0  0  0  0  0  0  0  0
   12.7003   -0.1850    0.0000 C   0  0  0  0  0  0  0  0  0  0  0  0
   11.9926   -1.1237    0.0000 C   0  0  0  0  0  0  0  0  0  0  0  0
    9.8833   -3.3193    0.0000 C   0  0  0  0  0  0  0  0  0  0  0  0
    8.2332   -3.5082    0.0000 C   0  0  0  0  0  0  0  0  0  0  0  0
    7.3612   -2.7198    0.0000 C   0  0  0  0  0  0  0  0  0  0  0  0
   12.4962    1.3889    0.0000 C   0  0  0  0  0  0  0  0  0  0  0  0
    6.4640   -2.0823    0.0000 C   0  0  0  0  0  0  0  0  0  0  0  0
    5.1339   -0.8046    0.0000 C   0  0  0  0  0  0  0  0  0  0  0  0
    4.9300    0.7735    0.0000 C   0  0  0  0  0  0  0  0  0  0  0  0
    5.6418    1.7091    0.0000 C   0  0  0  0  0  0  0  0  0  0  0  0
    9.2437    4.0979    0.0000 C   0  0  0  0  0  0  0  0  0  0  0  0
    7.7153    3.9034    0.0000 C   0  0  0  0  0  0  0  0  0  0  0  0
   10.2050    3.4212    0.0000 C   0  0  0  0  0  0  0  0  0  0  0  0
   11.1674    2.6653    0.0000 C   0  0  0  0  0  0  0  0  0  0  0  0
    7.3188   -3.9130    0.0000 C   0  0  0  0  0  0  0  0  0  0  0  0
   13.1849   -1.0598    0.0000 C   0  0  0  0  0  0  0  0  0  0  0  0
   13.4186    1.0026    0.0000 C   0  0  0  0  0  0  0  0  0  0  0  0
    9.4822   -4.2353    0.0000 C   0  0  0  0  0  0  0  0  0  0  0  0
    4.2116   -0.4181    0.0000 C   0  0  0  0  0  0  0  0  0  0  0  0
    6.7214    3.7928    0.0000 C   0  0  0  0  0  0  0  0  0  0  0  0
   10.1022    4.6108    0.0000 C   0  0  0  0  0  0  0  0  0  0  0  0
    7.2123   -4.9074    0.0000 C   0  0  0  0  0  0  0  0  0  0  0  0
   14.2143    1.6082    0.0000 C   0  0  0  0  0  0  0  0  0  0  0  0
    3.4157   -1.0236    0.0000 C   0  0  0  0  0  0  0  0  0  0  0  0
    6.1287    4.5982    0.0000 C   0  0  0  0  0  0  0  0  0  0  0  0
   10.1031   -1.9225    0.0000 H   0  0  0  0  0  0  0  0  0  0  0  0
    9.0108   -3.0672    0.0000 H   0  0  0  0  0  0  0  0  0  0  0  0
    6.4195   -0.9010    0.0000 H   0  0  0  0  0  0  0  0  0  0  0  0
   11.5831    1.3920    0.0000 H   0  0  0  0  0  0  0  0  0  0  0  0
    7.5709   -0.9000    0.0000 H   0  0  0  0  0  0  0  0  0  0  0  0
    5.3742    0.0762    0.0000 H   0  0  0  0  0  0  0  0  0  0  0  0
   10.7698   -1.5976    0.0000 H   0  0  0  0  0  0  0  0  0  0  0  0
   11.6157   -1.8282    0.0000 H   0  0  0  0  0  0  0  0  0  0  0  0
   11.8464   -0.9823    0.0000 H   0  0  0  0  0  0  0  0  0  0  0  0
    7.0473    2.5422    0.0000 H   0  0  0  0  0  0  0  0  0  0  0  0
    6.4855    1.9804    0.0000 H   0  0  0  0  0  0  0  0  0  0  0  0
    7.6966    2.9954    0.0000 H   0  0  0  0  0  0  0  0  0  0  0  0
   13.2866    0.0167    0.0000 H   0  0  0  0  0  0  0  0  0  0  0  0
   12.6035    0.4273    0.0000 H   0  0  0  0  0  0  0  0  0  0  0  0
   11.3997   -1.3049    0.0000 H   0  0  0  0  0  0  0  0  0  0  0  0
   12.1738   -1.7167    0.0000 H   0  0  0  0  0  0  0  0  0  0  0  0
   12.5856   -0.9426    0.0000 H   0  0  0  0  0  0  0  0  0  0  0  0
   10.3994   -3.6628    0.0000 H   0  0  0  0  0  0  0  0  0  0  0  0
   10.3112   -2.8706    0.0000 H   0  0  0  0  0  0  0  0  0  0  0  0
    8.3820   -4.1101    0.0000 H   0  0  0  0  0  0  0  0  0  0  0  0
    8.8518   -3.4662    0.0000 H   0  0  0  0  0  0  0  0  0  0  0  0
    7.2336   -2.1131    0.0000 H   0  0  0  0  0  0  0  0  0  0  0  0
    6.7545   -2.8474    0.0000 H   0  0  0  0  0  0  0  0  0  0  0  0
    7.4889   -3.3265    0.0000 H   0  0  0  0  0  0  0  0  0  0  0  0
   12.8314    1.9105    0.0000 H   0  0  0  0  0  0  0  0  0  0  0  0
   12.0408    1.8096    0.0000 H   0  0  0  0  0  0  0  0  0  0  0  0
    6.0042   -1.6665    0.0000 H   0  0  0  0  0  0  0  0  0  0  0  0
    6.0482   -2.5422    0.0000 H   0  0  0  0  0  0  0  0  0  0  0  0
    6.9239   -2.4982    0.0000 H   0  0  0  0  0  0  0  0  0  0  0  0
    4.7986   -1.3262    0.0000 H   0  0  0  0  0  0  0  0  0  0  0  0
    5.5892   -1.2254    0.0000 H   0  0  0  0  0  0  0  0  0  0  0  0
    4.9437    1.3933    0.0000 H   0  0  0  0  0  0  0  0  0  0  0  0
    4.3101    0.7872    0.0000 H   0  0  0  0  0  0  0  0  0  0  0  0
    4.9163    0.1536    0.0000 H   0  0  0  0  0  0  0  0  0  0  0  0
    6.2355    1.8876    0.0000 H   0  0  0  0  0  0  0  0  0  0  0  0
    5.4632    2.3028    0.0000 H   0  0  0  0  0  0  0  0  0  0  0  0
    5.0480    1.5305    0.0000 H   0  0  0  0  0  0  0  0  0  0  0  0
    9.0230    4.6772    0.0000 H   0  0  0  0  0  0  0  0  0  0  0  0
    8.6348    3.9811    0.0000 H   0  0  0  0  0  0  0  0  0  0  0  0
    8.2709    4.1786    0.0000 H   0  0  0  0  0  0  0  0  0  0  0  0
    7.5408    4.4983    0.0000 H   0  0  0  0  0  0  0  0  0  0  0  0
   10.4054    2.8345    0.0000 H   0  0  0  0  0  0  0  0  0  0  0  0
   10.7918    3.6216    0.0000 H   0  0  0  0  0  0  0  0  0  0  0  0
   10.0046    4.0079    0.0000 H   0  0  0  0  0  0  0  0  0  0  0  0
   11.6266    2.2487    0.0000 H   0  0  0  0  0  0  0  0  0  0  0  0
   11.5840    3.1245    0.0000 H   0  0  0  0  0  0  0  0  0  0  0  0
   10.7082    3.0819    0.0000 H   0  0  0  0  0  0  0  0  0  0  0  0
    7.1701   -3.3112    0.0000 H   0  0  0  0  0  0  0  0  0  0  0  0
    6.7003   -3.9550    0.0000 H   0  0  0  0  0  0  0  0  0  0  0  0
   13.0834    0.4810    0.0000 H   0  0  0  0  0  0  0  0  0  0  0  0
   13.8741    0.5819    0.0000 H   0  0  0  0  0  0  0  0  0  0  0  0
    4.5469    0.1034    0.0000 H   0  0  0  0  0  0  0  0  0  0  0  0
    3.7562    0.0026    0.0000 H   0  0  0  0  0  0  0  0  0  0  0  0
    6.1658    3.5176    0.0000 H   0  0  0  0  0  0  0  0  0  0  0  0
    6.8960    3.1979    0.0000 H   0  0  0  0  0  0  0  0  0  0  0  0
   14.4852   -1.6198    0.0000 H   0  0  0  0  0  0  0  0  0  0  0  0
   14.5042   -0.5461    0.0000 H   0  0  0  0  0  0  0  0  0  0  0  0
   10.6912   -4.9721    0.0000 H   0  0  0  0  0  0  0  0  0  0  0  0
   10.6195    5.9287    0.0000 H   0  0  0  0  0  0  0  0  0  0  0  0
    9.5457    5.9126    0.0000 H   0  0  0  0  0  0  0  0  0  0  0  0
    6.2318   -5.9287    0.0000 H   0  0  0  0  0  0  0  0  0  0  0  0
   15.6301    1.5974    0.0000 H   0  0  0  0  0  0  0  0  0  0  0  0
    2.0000   -1.0125    0.0000 H   0  0  0  0  0  0  0  0  0  0  0  0
    4.7674    4.9870    0.0000 H   0  0  0  0  0  0  0  0  0  0  0  0
  2 57  1  0  0  0  0
  2122  1  0  0  0  0
  3 55  2  0  0  0  0
  4 57  2  0  0  0  0
  5 60  2  0  0  0  0
  6 61  1  0  0  0  0
  6125  1  0  0  0  0
  7 62  1  0  0  0  0
  7126  1  0  0  0  0
  8 61  2  0  0  0  0
  9 62  2  0  0  0  0
 10 63  1  0  0  0  0
 10127  1  0  0  0  0
 11 63  2  0  0  0  0
 12 64  1  0  0  0  0
 12128  1  0  0  0  0
 13 64  2  0  0  0  0
 14 21  1  0  0  0  0
 14 24  2  0  0  0  0
 15 20  1  0  0  0  0
 15 28  2  0  0  0  0
 16 26  1  0  0  0  0
 16 30  2  0  0  0  0
 17 33  1  0  0  0  0
 17 34  2  0  0  0  0
 18 55  1  0  0  0  0
 18120  1  0  0  0  0
 18121  1  0  0  0  0
 19 60  1  0  0  0  0
 19123  1  0  0  0  0
 19124  1  0  0  0  0
 20 21  1  0  0  0  0
 20 22  1  0  0  0  0
 20 35  1  0  0  0  0
 21 23  1  0  0  0  0
 21 65  1  0  0  0  0
 22 27  1  0  0  0  0
 22 40  1  0  0  0  0
 22 41  1  0  0  0  0
 23 25  1  0  0  0  0
 23 42  1  0  0  0  0
 23 66  1  0  0  0  0
 24 25  1  0  0  0  0
 24 29  1  0  0  0  0
 25 43  1  0  0  0  0
 25 44  1  0  0  0  0
 26 29  1  0  0  0  0
 26 31  1  0  0  0  0
 26 67  1  0  0  0  0
 27 28  1  0  0  0  0
 27 45  1  0  0  0  0
 27 68  1  0  0  0  0
 28 37  1  0  0  0  0
 29 46  1  0  0  0  0
 29 69  1  0  0  0  0
 30 32  1  0  0  0  0
 30 38  1  0  0  0  0
 31 32  1  0  0  0  0
 31 47  1  0  0  0  0
 31 70  1  0  0  0  0
 32 48  1  0  0  0  0
 32 49  1  0  0  0  0
 33 36  1  0  0  0  0
 33 37  2  3  0  0  0
 34 38  1  0  0  0  0
 34 39  1  0  0  0  0
 35 71  1  0  0  0  0
 35 72  1  0  0  0  0
 35 73  1  0  0  0  0
 36 39  1  0  0  0  0
 36 50  1  0  0  0  0
 36 52  1  0  0  0  0
 37 53  1  0  0  0  0
 38 74  1  0  0  0  0
 38 75  1  0  0  0  0
 39 51  1  0  0  0  0
 39 76  1  0  0  0  0
 40 55  1  0  0  0  0
 40 77  1  0  0  0  0
 40 78  1  0  0  0  0
 41 79  1  0  0  0  0
 41 80  1  0  0  0  0
 41 81  1  0  0  0  0
 42 57  1  0  0  0  0
 42 82  1  0  0  0  0
 42 83  1  0  0  0  0
 43 54  1  0  0  0  0
 43 84  1  0  0  0  0
 43 85  1  0  0  0  0
 44 86  1  0  0  0  0
 44 87  1  0  0  0  0
 44 88  1  0  0  0  0
 45 56  1  0  0  0  0
 45 89  1  0  0  0  0
 45 90  1  0  0  0  0
 46 91  1  0  0  0  0
 46 92  1  0  0  0  0
 46 93  1  0  0  0  0
 47 58  1  0  0  0  0
 47 94  1  0  0  0  0
 47 95  1  0  0  0  0
 48 96  1  0  0  0  0
 48 97  1  0  0  0  0
 48 98  1  0  0  0  0
 49 99  1  0  0  0  0
 49100  1  0  0  0  0
 49101  1  0  0  0  0
 50 60  1  0  0  0  0
 50102  1  0  0  0  0
 50103  1  0  0  0  0
 51 59  1  0  0  0  0
 51104  1  0  0  0  0
 51105  1  0  0  0  0
 52106  1  0  0  0  0
 52107  1  0  0  0  0
 52108  1  0  0  0  0
 53109  1  0  0  0  0
 53110  1  0  0  0  0
 53111  1  0  0  0  0
 54 61  1  0  0  0  0
 54112  1  0  0  0  0
 54113  1  0  0  0  0
 56 62  1  0  0  0  0
 56114  1  0  0  0  0
 56115  1  0  0  0  0
 58 63  1  0  0  0  0
 58116  1  0  0  0  0
 58117  1  0  0  0  0
 59 64  1  0  0  0  0
 59118  1  0  0  0  0
 59119  1  0  0  0  0
M  END
> <PUBCHEM_COMPOUND_CID>
539

> <PUBCHEM_COMPOUND_CANONICALIZED>
1

> <PUBCHEM_CACTVS_COMPLEXITY>
2150

> <PUBCHEM_CACTVS_HBOND_ACCEPTOR>
16

> <PUBCHEM_CACTVS_HBOND_DONOR>
7

> <PUBCHEM_CACTVS_ROTATABLE_BOND>
18

> <PUBCHEM_CACTVS_SUBSKEYS>
AAADcfB/vAAAAAAQAAAAAAAAAAAAAWIECBAgQIAAAAAQIFgAAAAAHgAQCAAAD6jBgAQCCAJAAgCoAwXwXAAAAAAgAAAACAEwABgAQBIAgAAAQAAEkAAIAAO82fGfgAAAAAAAAAAAAAAAAAAAAAAAAAAAAA==

> <PUBCHEM_IUPAC_OPENEYE_NAME>
3-[13,18-bis(2-amino-2-oxo-ethyl)-3,12,17-tris(2-carboxyethyl)-2-(carboxymethyl)-3,5,8,8,13,15,18,19-octamethyl-1,2,5,6,7,10,12,17-octahydrocorrin-7-yl]propanoic acid;cobalt

> <PUBCHEM_IUPAC_CAS_NAME>
3-[13,18-bis(2-amino-2-oxoethyl)-3,12,17-tris(2-carboxyethyl)-2-(carboxymethyl)-3,5,8,8,13,15,18,19-octamethyl-1,2,5,6,7,10,12,17-octahydrocorrin-7-yl]propanoic acid;cobalt

> <PUBCHEM_IUPAC_NAME_MARKUP>
3-[13,18-bis(2-amino-2-oxoethyl)-3,12,17-tris(2-carboxyethyl)-2-(carboxymethyl)-3,5,8,8,13,15,18,19-octamethyl-1,2,5,6,7,10,12,17-octahydrocorrin-7-yl]propanoic acid;cobalt

> <PUBCHEM_IUPAC_NAME>
3-[13,18-bis(2-amino-2-oxoethyl)-3,12,17-tris(2-carboxyethyl)-2-(carboxymethyl)-3,5,8,8,13,15,18,19-octamethyl-1,2,5,6,7,10,12,17-octahydrocorrin-7-yl]propanoic acid;cobalt

> <PUBCHEM_IUPAC_SYSTEMATIC_NAME>
3-[13,18-bis(2-azanyl-2-oxidanylidene-ethyl)-2-(2-hydroxy-2-oxoethyl)-3,12,17-tris(3-hydroxy-3-oxopropyl)-3,5,8,8,13,15,18,19-octamethyl-1,2,5,6,7,10,12,17-octahydrocorrin-7-yl]propanoic acid;cobalt

> <PUBCHEM_IUPAC_TRADITIONAL_NAME>
3-[13,18-bis(2-amino-2-keto-ethyl)-3,12,17-tris(2-carboxyethyl)-2-(carboxymethyl)-3,5,8,8,13,15,18,19-octamethyl-1,2,5,6,7,10,12,17-octahydrocorrin-7-yl]propionic acid;cobalt

> <PUBCHEM_IUPAC_INCHI>
InChI=1S/C45H64N6O12.Co/c1-21-36-24(10-13-32(56)57)41(3,4)28(49-36)18-27-23(9-12-31(54)55)43(6,19-29(46)52)39(48-27)22(2)37-25(11-14-33(58)59)44(7,20-30(47)53)45(8,51-37)40-26(17-35(62)63)42(5,38(21)50-40)16-15-34(60)61;/h21,23-26,36,40H,9-20H2,1-8H3,(H2,46,52)(H2,47,53)(H,54,55)(H,56,57)(H,58,59)(H,60,61)(H,62,63);

> <PUBCHEM_IUPAC_INCHIKEY>
YQSFSUFQKPICDG-UHFFFAOYSA-N

> <PUBCHEM_EXACT_MASS>
939.391415

> <PUBCHEM_MOLECULAR_FORMULA>
C45H64CoN6O12

> <PUBCHEM_MOLECULAR_WEIGHT>
940.0

> <PUBCHEM_SMILES>
CC1C2C(C(C(=N2)CC3=NC(=C(C4=NC(C5C(C(C1=N5)(C)CCC(=O)O)CC(=O)O)(C(C4CCC(=O)O)(C)CC(=O)N)C)C)C(C3CCC(=O)O)(C)CC(=O)N)(C)C)CCC(=O)O.[Co]

> <PUBCHEM_CONNECTIVITY_SMILES>
CC1C2C(C(C(=N2)CC3=NC(=C(C4=NC(C5C(C(C1=N5)(C)CCC(=O)O)CC(=O)O)(C(C4CCC(=O)O)(C)CC(=O)N)C)C)C(C3CCC(=O)O)(C)CC(=O)N)(C)C)CCC(=O)O.[Co]

> <PUBCHEM_CACTVS_TPSA>
322

> <PUBCHEM_MONOISOTOPIC_WEIGHT>
939.391415

> <PUBCHEM_TOTAL_CHARGE>
0

> <PUBCHEM_HEAVY_ATOM_COUNT>
64

> <PUBCHEM_ATOM_DEF_STEREO_COUNT>
0

> <PUBCHEM_ATOM_UDEF_STEREO_COUNT>
11

> <PUBCHEM_BOND_DEF_STEREO_COUNT>
0

> <PUBCHEM_BOND_UDEF_STEREO_COUNT>
1

> <PUBCHEM_ISOTOPIC_ATOM_COUNT>
0

> <PUBCHEM_COMPONENT_COUNT>
2

> <PUBCHEM_CACTVS_TAUTO_COUNT>
-1

> <PUBCHEM_NONSTANDARDBOND>
1  14  6
1  15  6
1  16  6
1  17  6

> <PUBCHEM_COORDINATE_TYPE>
1
5
255

> <PUBCHEM_BONDANNOTATIONS>
21  14  3
26  16  3
20  35  3
22  41  3
23  42  3
25  44  3
27  45  3
29  46  3
31  47  3
33  37  1
36  52  3
39  51  3

$$$$
