522
  -OEChem-08152602532D

117121  0     1  0  0  0  0  0999 V2000
    9.8054   -2.9498    0.0000 O   0  0  0  0  0  0  0  0  0  0  0  0
    9.1042   -5.2298    0.0000 O   0  0  0  0  0  0  0  0  0  0  0  0
    9.9609   -3.7244    0.0000 O   0  0  0  0  0  0  0  0  0  0  0  0
    4.2484   -4.4672    0.0000 O   0  0  0  0  0  0  0  0  0  0  0  0
   13.0920   -1.4451    0.0000 O   0  0  0  0  0  0  0  0  0  0  0  0
    5.7484   -5.3332    0.0000 O   0  0  0  0  0  0  0  0  0  0  0  0
   12.6154    0.2201    0.0000 O   0  0  0  0  0  0  0  0  0  0  0  0
   13.4017    2.8028    0.0000 O   0  0  0  0  0  0  0  0  0  0  0  0
   13.6592    1.0900    0.0000 O   0  0  0  0  0  0  0  0  0  0  0  0
    2.2981   -1.2838    0.0000 O   0  0  0  0  0  0  0  0  0  0  0  0
    3.8168   -2.1166    0.0000 O   0  0  0  0  0  0  0  0  0  0  0  0
    3.4395    3.8063    0.0000 O   0  0  0  0  0  0  0  0  0  0  0  0
    6.4315    5.5431    0.0000 O   0  0  0  0  0  0  0  0  0  0  0  0
    2.3908    2.4278    0.0000 O   0  0  0  0  0  0  0  0  0  0  0  0
    8.0181    4.8482    0.0000 O   0  0  0  0  0  0  0  0  0  0  0  0
   11.3333    4.4724    0.0000 O   0  0  0  0  0  0  0  0  0  0  0  0
    9.9170    5.4694    0.0000 O   0  0  0  0  0  0  0  0  0  0  0  0
    7.7355   -1.2084    0.0000 N   0  0  0  0  0  0  0  0  0  0  0  0
    9.1969    0.1243    0.0000 N   0  0  0  0  0  0  0  0  0  0  0  0
    6.2724    0.1243    0.0000 N   0  0  0  0  0  0  0  0  0  0  0  0
    7.7029    1.4570    0.0000 N   0  0  0  0  0  0  0  0  0  0  0  0
    8.2227   -2.7352    0.0000 C   0  0  3  0  0  0  0  0  0  0  0  0
    8.5159   -1.7934    0.0000 C   0  0  3  0  0  0  0  0  0  0  0  0
    7.2484   -2.7352    0.0000 C   0  0  3  0  0  0  0  0  0  0  0  0
    6.9551   -1.8260    0.0000 C   0  0  0  0  0  0  0  0  0  0  0  0
    9.7819   -0.5910    0.0000 C   0  0  0  0  0  0  0  0  0  0  0  0
    8.2289   -3.7351    0.0000 C   0  0  0  0  0  0  0  0  0  0  0  0
    9.0145   -3.3459    0.0000 C   0  0  0  0  0  0  0  0  0  0  0  0
    6.7484   -3.6012    0.0000 C   0  0  0  0  0  0  0  0  0  0  0  0
   10.6926    0.6440    0.0000 C   0  0  3  0  0  0  0  0  0  0  0  0
   10.6926   -0.3303    0.0000 C   0  0  0  0  0  0  0  0  0  0  0  0
    9.4945   -1.9994    0.0000 C   0  0  0  0  0  0  0  0  0  0  0  0
    9.7493    0.9047    0.0000 C   0  0  0  0  0  0  0  0  0  0  0  0
    6.0133   -1.5327    0.0000 C   0  0  0  0  0  0  0  0  0  0  0  0
    5.7484   -3.6012    0.0000 C   0  0  0  0  0  0  0  0  0  0  0  0
   11.6815    0.7926    0.0000 C   0  0  0  0  0  0  0  0  0  0  0  0
   11.4116   -1.0253    0.0000 C   0  0  0  0  0  0  0  0  0  0  0  0
    9.0980   -4.2298    0.0000 C   0  0  0  0  0  0  0  0  0  0  0  0
   10.8568    1.6304    0.0000 C   0  0  0  0  0  0  0  0  0  0  0  0
    5.7201   -0.6236    0.0000 C   0  0  0  0  0  0  0  0  0  0  0  0
   10.1621   -1.2549    0.0000 C   0  0  0  0  0  0  0  0  0  0  0  0
    9.4576    1.8138    0.0000 C   0  0  0  0  0  0  0  0  0  0  0  0
    4.7784   -0.3629    0.0000 C   0  0  3  0  0  0  0  0  0  0  0  0
   12.0472    1.7234    0.0000 C   0  0  0  0  0  0  0  0  0  0  0  0
    4.7784    0.6114    0.0000 C   0  0  0  0  0  0  0  0  0  0  0  0
    8.5159    2.1071    0.0000 C   0  0  0  0  0  0  0  0  0  0  0  0
    5.7201    0.8721    0.0000 C   0  0  0  0  0  0  0  0  0  0  0  0
    5.2484   -4.4672    0.0000 C   0  0  0  0  0  0  0  0  0  0  0  0
    3.7786   -0.3849    0.0000 C   0  0  0  0  0  0  0  0  0  0  0  0
    4.4904   -1.3205    0.0000 C   0  0  0  0  0  0  0  0  0  0  0  0
   12.3730   -0.7501    0.0000 C   0  0  0  0  0  0  0  0  0  0  0  0
    5.9808    1.8138    0.0000 C   0  0  0  0  0  0  0  0  0  0  0  0
    8.1901    3.0162    0.0000 C   0  0  0  0  0  0  0  0  0  0  0  0
    6.9225    2.0745    0.0000 C   0  0  0  0  0  0  0  0  0  0  0  0
    3.9825    1.2168    0.0000 C   0  0  0  0  0  0  0  0  0  0  0  0
    7.2158    3.0162    0.0000 C   0  0  0  0  0  0  0  0  0  0  0  0
   13.0360    1.8720    0.0000 C   0  0  0  0  0  0  0  0  0  0  0  0
    8.7657    3.8340    0.0000 C   0  0  0  0  0  0  0  0  0  0  0  0
    3.2978   -1.2618    0.0000 C   0  0  0  0  0  0  0  0  0  0  0  0
    4.1090    2.2088    0.0000 C   0  0  0  0  0  0  0  0  0  0  0  0
    6.6231    3.8216    0.0000 C   0  0  0  0  0  0  0  0  0  0  0  0
    9.7617    3.7443    0.0000 C   0  0  0  0  0  0  0  0  0  0  0  0
    3.3131    2.8143    0.0000 C   0  0  0  0  0  0  0  0  0  0  0  0
    7.0242    4.7376    0.0000 C   0  0  0  0  0  0  0  0  0  0  0  0
   10.3373    4.5620    0.0000 C   0  0  0  0  0  0  0  0  0  0  0  0
    6.6318   -2.6697    0.0000 H   0  0  0  0  0  0  0  0  0  0  0  0
    7.7274   -0.5885    0.0000 H   0  0  0  0  0  0  0  0  0  0  0  0
    7.6177   -3.6312    0.0000 H   0  0  0  0  0  0  0  0  0  0  0  0
    8.0204   -4.3190    0.0000 H   0  0  0  0  0  0  0  0  0  0  0  0
    8.6358   -3.8368    0.0000 H   0  0  0  0  0  0  0  0  0  0  0  0
    9.5054   -3.7246    0.0000 H   0  0  0  0  0  0  0  0  0  0  0  0
    9.3932   -2.8550    0.0000 H   0  0  0  0  0  0  0  0  0  0  0  0
    6.6407   -4.2118    0.0000 H   0  0  0  0  0  0  0  0  0  0  0  0
    7.3310   -3.8132    0.0000 H   0  0  0  0  0  0  0  0  0  0  0  0
    5.5771   -1.9733    0.0000 H   0  0  0  0  0  0  0  0  0  0  0  0
    5.8560   -2.9906    0.0000 H   0  0  0  0  0  0  0  0  0  0  0  0
    5.1658   -3.3891    0.0000 H   0  0  0  0  0  0  0  0  0  0  0  0
   11.6658    0.1728    0.0000 H   0  0  0  0  0  0  0  0  0  0  0  0
   12.2891    0.6696    0.0000 H   0  0  0  0  0  0  0  0  0  0  0  0
   10.9098   -1.3895    0.0000 H   0  0  0  0  0  0  0  0  0  0  0  0
   11.6831   -1.5827    0.0000 H   0  0  0  0  0  0  0  0  0  0  0  0
   11.4684    1.5286    0.0000 H   0  0  0  0  0  0  0  0  0  0  0  0
   10.9586    2.2420    0.0000 H   0  0  0  0  0  0  0  0  0  0  0  0
   10.2452    1.7322    0.0000 H   0  0  0  0  0  0  0  0  0  0  0  0
   10.6237   -1.6688    0.0000 H   0  0  0  0  0  0  0  0  0  0  0  0
   10.5760   -0.7933    0.0000 H   0  0  0  0  0  0  0  0  0  0  0  0
    9.7005   -0.8409    0.0000 H   0  0  0  0  0  0  0  0  0  0  0  0
   10.0742    1.8796    0.0000 H   0  0  0  0  0  0  0  0  0  0  0  0
    9.5182    2.4308    0.0000 H   0  0  0  0  0  0  0  0  0  0  0  0
   12.0628    2.3432    0.0000 H   0  0  0  0  0  0  0  0  0  0  0  0
   11.4395    1.8464    0.0000 H   0  0  0  0  0  0  0  0  0  0  0  0
    3.8728    0.2279    0.0000 H   0  0  0  0  0  0  0  0  0  0  0  0
    3.1915   -0.1858    0.0000 H   0  0  0  0  0  0  0  0  0  0  0  0
    3.8967   -1.1420    0.0000 H   0  0  0  0  0  0  0  0  0  0  0  0
    4.3119   -1.9142    0.0000 H   0  0  0  0  0  0  0  0  0  0  0  0
    5.0842   -1.4991    0.0000 H   0  0  0  0  0  0  0  0  0  0  0  0
    5.9251    2.4313    0.0000 H   0  0  0  0  0  0  0  0  0  0  0  0
    5.3633    1.8695    0.0000 H   0  0  0  0  0  0  0  0  0  0  0  0
    7.7046    0.8370    0.0000 H   0  0  0  0  0  0  0  0  0  0  0  0
    3.3905    1.4008    0.0000 H   0  0  0  0  0  0  0  0  0  0  0  0
    3.6985    0.6657    0.0000 H   0  0  0  0  0  0  0  0  0  0  0  0
    8.5692   -5.5431    0.0000 H   0  0  0  0  0  0  0  0  0  0  0  0
    8.9277    4.4324    0.0000 H   0  0  0  0  0  0  0  0  0  0  0  0
    8.2045    4.0974    0.0000 H   0  0  0  0  0  0  0  0  0  0  0  0
    4.7010    2.0248    0.0000 H   0  0  0  0  0  0  0  0  0  0  0  0
    4.3930    2.7599    0.0000 H   0  0  0  0  0  0  0  0  0  0  0  0
    6.1070    4.1652    0.0000 H   0  0  0  0  0  0  0  0  0  0  0  0
    6.1951    3.3730    0.0000 H   0  0  0  0  0  0  0  0  0  0  0  0
    3.9384   -5.0041    0.0000 H   0  0  0  0  0  0  0  0  0  0  0  0
   13.6881   -1.2745    0.0000 H   0  0  0  0  0  0  0  0  0  0  0  0
    9.5997    3.1458    0.0000 H   0  0  0  0  0  0  0  0  0  0  0  0
   10.3230    3.4809    0.0000 H   0  0  0  0  0  0  0  0  0  0  0  0
   14.0148    2.8950    0.0000 H   0  0  0  0  0  0  0  0  0  0  0  0
    2.0000   -1.8274    0.0000 H   0  0  0  0  0  0  0  0  0  0  0  0
    2.9461    4.1816    0.0000 H   0  0  0  0  0  0  0  0  0  0  0  0
    5.8153    5.4745    0.0000 H   0  0  0  0  0  0  0  0  0  0  0  0
   11.6902    4.9794    0.0000 H   0  0  0  0  0  0  0  0  0  0  0  0
  1 32  2  0  0  0  0
  2 38  1  0  0  0  0
  2102  1  0  0  0  0
  3 38  2  0  0  0  0
  4 48  1  0  0  0  0
  4109  1  0  0  0  0
  5 51  1  0  0  0  0
  5110  1  0  0  0  0
  6 48  2  0  0  0  0
  7 51  2  0  0  0  0
  8 57  1  0  0  0  0
  8113  1  0  0  0  0
  9 57  2  0  0  0  0
 10 59  1  0  0  0  0
 10114  1  0  0  0  0
 11 59  2  0  0  0  0
 12 63  1  0  0  0  0
 12115  1  0  0  0  0
 13 64  1  0  0  0  0
 13116  1  0  0  0  0
 14 63  2  0  0  0  0
 15 64  2  0  0  0  0
 16 65  1  0  0  0  0
 16117  1  0  0  0  0
 17 65  2  0  0  0  0
 18 23  1  0  0  0  0
 18 25  1  0  0  0  0
 18 67  1  0  0  0  0
 19 26  1  0  0  0  0
 19 33  2  0  0  0  0
 20 40  2  0  0  0  0
 20 47  1  0  0  0  0
 21 46  1  0  0  0  0
 21 54  1  0  0  0  0
 21 99  1  0  0  0  0
 22 23  1  0  0  0  0
 22 24  1  0  0  0  0
 22 27  1  0  0  0  0
 22 28  1  0  0  0  0
 23 26  1  0  0  0  0
 23 32  1  0  0  0  0
 24 25  1  0  0  0  0
 24 29  1  0  0  0  0
 24 66  1  0  0  0  0
 25 34  2  3  0  0  0
 26 31  2  0  0  0  0
 27 38  1  0  0  0  0
 27 68  1  0  0  0  0
 27 69  1  0  0  0  0
 28 70  1  0  0  0  0
 28 71  1  0  0  0  0
 28 72  1  0  0  0  0
 29 35  1  0  0  0  0
 29 73  1  0  0  0  0
 29 74  1  0  0  0  0
 30 31  1  0  0  0  0
 30 33  1  0  0  0  0
 30 36  1  0  0  0  0
 30 39  1  0  0  0  0
 31 37  1  0  0  0  0
 32 41  1  0  0  0  0
 33 42  1  0  0  0  0
 34 40  1  0  0  0  0
 34 75  1  0  0  0  0
 35 48  1  0  0  0  0
 35 76  1  0  0  0  0
 35 77  1  0  0  0  0
 36 44  1  0  0  0  0
 36 78  1  0  0  0  0
 36 79  1  0  0  0  0
 37 51  1  0  0  0  0
 37 80  1  0  0  0  0
 37 81  1  0  0  0  0
 39 82  1  0  0  0  0
 39 83  1  0  0  0  0
 39 84  1  0  0  0  0
 40 43  1  0  0  0  0
 41 85  1  0  0  0  0
 41 86  1  0  0  0  0
 41 87  1  0  0  0  0
 42 46  1  0  0  0  0
 42 88  1  0  0  0  0
 42 89  1  0  0  0  0
 43 45  1  0  0  0  0
 43 49  1  0  0  0  0
 43 50  1  0  0  0  0
 44 57  1  0  0  0  0
 44 90  1  0  0  0  0
 44 91  1  0  0  0  0
 45 47  2  0  0  0  0
 45 55  1  0  0  0  0
 46 53  2  0  0  0  0
 47 52  1  0  0  0  0
 49 59  1  0  0  0  0
 49 92  1  0  0  0  0
 49 93  1  0  0  0  0
 50 94  1  0  0  0  0
 50 95  1  0  0  0  0
 50 96  1  0  0  0  0
 52 54  1  0  0  0  0
 52 97  1  0  0  0  0
 52 98  1  0  0  0  0
 53 56  1  0  0  0  0
 53 58  1  0  0  0  0
 54 56  2  0  0  0  0
 55 60  1  0  0  0  0
 55100  1  0  0  0  0
 55101  1  0  0  0  0
 56 61  1  0  0  0  0
 58 62  1  0  0  0  0
 58103  1  0  0  0  0
 58104  1  0  0  0  0
 60 63  1  0  0  0  0
 60105  1  0  0  0  0
 60106  1  0  0  0  0
 61 64  1  0  0  0  0
 61107  1  0  0  0  0
 61108  1  0  0  0  0
 62 65  1  0  0  0  0
 62111  1  0  0  0  0
 62112  1  0  0  0  0
M  END
> <PUBCHEM_COMPOUND_CID>
522

> <PUBCHEM_COMPOUND_CANONICALIZED>
1

> <PUBCHEM_CACTVS_COMPLEXITY>
2260

> <PUBCHEM_CACTVS_HBOND_ACCEPTOR>
20

> <PUBCHEM_CACTVS_HBOND_DONOR>
10

> <PUBCHEM_CACTVS_ROTATABLE_BOND>
21

> <PUBCHEM_CACTVS_SUBSKEYS>
AAADcfB/vgAAAAAAAAAAAAAAAAAAAWLECAAAAAAAAAAAAAABgAAAHgAQCAAAD4yBngACiJLJkgCoA6TyTACCgCAhAiAAmSGwRJgIYHrA1bGUQAhk0AHIyAe83/O/gAAAAAAAAAAAAAAAAAAAAAAAAAAAAA==

> <PUBCHEM_IUPAC_OPENEYE_NAME>
3-[1-acetyl-8,13,17-tris(2-carboxyethyl)-2,7,12,18-tetrakis(carboxymethyl)-2,7,17-trimethyl-10,15,21,23-tetrahydro-3H-corrin-3-yl]propanoic acid

> <PUBCHEM_IUPAC_CAS_NAME>
3-[1-acetyl-8,13,17-tris(2-carboxyethyl)-2,7,12,18-tetrakis(carboxymethyl)-2,7,17-trimethyl-10,15,21,23-tetrahydro-3H-corrin-3-yl]propanoic acid

> <PUBCHEM_IUPAC_NAME_MARKUP>
3-[1-acetyl-8,13,17-tris(2-carboxyethyl)-2,7,12,18-tetrakis(carboxymethyl)-2,7,17-trimethyl-10,15,21,23-tetrahydro-3<I>H</I>-corrin-3-yl]propanoic acid

> <PUBCHEM_IUPAC_NAME>
3-[1-acetyl-8,13,17-tris(2-carboxyethyl)-2,7,12,18-tetrakis(carboxymethyl)-2,7,17-trimethyl-10,15,21,23-tetrahydro-3H-corrin-3-yl]propanoic acid

> <PUBCHEM_IUPAC_SYSTEMATIC_NAME>
3-[1-ethanoyl-2,7,12,18-tetrakis(2-hydroxy-2-oxoethyl)-8,13,17-tris(3-hydroxy-3-oxopropyl)-2,7,17-trimethyl-10,15,21,23-tetrahydro-3H-corrin-3-yl]propanoic acid

> <PUBCHEM_IUPAC_TRADITIONAL_NAME>
3-[1-acetyl-8,13,17-tris(2-carboxyethyl)-2,7,12,18-tetrakis(carboxymethyl)-2,7,17-trimethyl-10,15,21,23-tetrahydro-3H-corrin-3-yl]propionic acid

> <PUBCHEM_IUPAC_INCHI>
InChI=1S/C44H52N4O17/c1-20(49)44-40-25(14-37(60)61)41(2,12-11-35(56)57)30(47-40)16-27-21(5-8-32(50)51)22(13-36(58)59)26(45-27)15-28-23(6-9-33(52)53)42(3,18-38(62)63)31(46-28)17-29(48-44)24(7-10-34(54)55)43(44,4)19-39(64)65/h17,24,45,48H,5-16,18-19H2,1-4H3,(H,50,51)(H,52,53)(H,54,55)(H,56,57)(H,58,59)(H,60,61)(H,62,63)(H,64,65)

> <PUBCHEM_IUPAC_INCHIKEY>
IOBDBIPWYQGVMM-UHFFFAOYSA-N

> <PUBCHEM_XLOGP3_AA>
-2

> <PUBCHEM_EXACT_MASS>
908.33274620

> <PUBCHEM_MOLECULAR_FORMULA>
C44H52N4O17

> <PUBCHEM_MOLECULAR_WEIGHT>
908.9

> <PUBCHEM_SMILES>
CC(=O)C12C3=C(C(C(=N3)CC4=C(C(=C(N4)CC5=C(C(C(=N5)C=C(N1)C(C2(C)CC(=O)O)CCC(=O)O)(C)CC(=O)O)CCC(=O)O)CC(=O)O)CCC(=O)O)(C)CCC(=O)O)CC(=O)O

> <PUBCHEM_CONNECTIVITY_SMILES>
CC(=O)C12C3=C(C(C(=N3)CC4=C(C(=C(N4)CC5=C(C(C(=N5)C=C(N1)C(C2(C)CC(=O)O)CCC(=O)O)(C)CC(=O)O)CCC(=O)O)CC(=O)O)CCC(=O)O)(C)CCC(=O)O)CC(=O)O

> <PUBCHEM_CACTVS_TPSA>
368

> <PUBCHEM_MONOISOTOPIC_WEIGHT>
908.33274620

> <PUBCHEM_TOTAL_CHARGE>
0

> <PUBCHEM_HEAVY_ATOM_COUNT>
65

> <PUBCHEM_ATOM_DEF_STEREO_COUNT>
0

> <PUBCHEM_ATOM_UDEF_STEREO_COUNT>
5

> <PUBCHEM_BOND_DEF_STEREO_COUNT>
0

> <PUBCHEM_BOND_UDEF_STEREO_COUNT>
1

> <PUBCHEM_ISOTOPIC_ATOM_COUNT>
0

> <PUBCHEM_COMPONENT_COUNT>
1

> <PUBCHEM_CACTVS_TAUTO_COUNT>
-1

> <PUBCHEM_COORDINATE_TYPE>
1
5
255

> <PUBCHEM_BONDANNOTATIONS>
21  46  8
21  54  8
22  28  3
23  32  3
24  29  3
25  34  1
30  39  3
43  50  3
46  53  8
53  56  8
54  56  8

$$$$
