1040
  -OEChem-08152603383D

 78 82  0     1  0  0  0  0  0999 V2000
    6.3751    4.0363   -2.2329 O   0  0  0  0  0  0  0  0  0  0  0  0
    6.6744    3.1899   -0.1464 O   0  0  0  0  0  0  0  0  0  0  0  0
    4.9156   -5.2368   -0.1825 O   0  0  0  0  0  0  0  0  0  0  0  0
    3.5350   -4.0588   -1.5486 O   0  0  0  0  0  0  0  0  0  0  0  0
    0.4657    1.4793    0.3521 N   0  0  0  0  0  0  0  0  0  0  0  0
   -2.4696   -1.5481    0.3149 N   0  0  0  0  0  0  0  0  0  0  0  0
    0.4325   -1.4499    0.3961 N   0  0  0  0  0  0  0  0  0  0  0  0
   -2.4605    1.3673   -0.0579 N   0  0  0  0  0  0  0  0  0  0  0  0
    1.5073    3.5206    0.0142 C   0  0  1  0  0  0  0  0  0  0  0  0
   -3.4658   -3.6551   -0.2261 C   0  0  1  0  0  0  0  0  0  0  0  0
   -4.4086   -2.5279   -0.6507 C   0  0  1  0  0  0  0  0  0  0  0  0
    2.5044    2.3890    0.2722 C   0  0  0  0  0  0  0  0  0  0  0  0
    0.1627    2.7886    0.0762 C   0  0  0  0  0  0  0  0  0  0  0  0
    1.8197    1.2374    0.4562 C   0  0  0  0  0  0  0  0  0  0  0  0
   -2.2084   -2.8826    0.1075 C   0  0  0  0  0  0  0  0  0  0  0  0
   -3.6891   -1.3300   -0.0676 C   0  0  0  0  0  0  0  0  0  0  0  0
    3.9712    2.6476    0.2507 C   0  0  0  0  0  0  0  0  0  0  0  0
    1.6232    4.6370    1.0507 C   0  0  0  0  0  0  0  0  0  0  0  0
   -3.9978   -4.4002    0.9991 C   0  0  0  0  0  0  0  0  0  0  0  0
    2.3869   -0.0625    0.7428 C   0  0  0  0  0  0  0  0  0  0  0  0
    1.7543   -1.2479    0.7220 C   0  0  0  0  0  0  0  0  0  0  0  0
    2.3542   -2.5421    1.0079 C   0  0  0  0  0  0  0  0  0  0  0  0
   -1.0025   -3.4671    0.1647 C   0  0  0  0  0  0  0  0  0  0  0  0
   -1.0214    3.3879   -0.1105 C   0  0  0  0  0  0  0  0  0  0  0  0
    0.2484   -2.7357    0.4670 C   0  0  0  0  0  0  0  0  0  0  0  0
    1.4434   -3.5136    0.8560 C   0  0  0  0  0  0  0  0  0  0  0  0
   -4.4221   -0.0438    0.0393 C   0  0  0  0  0  0  0  0  0  0  0  0
   -4.4903   -2.3409   -2.1316 C   0  0  0  0  0  0  0  0  0  0  0  0
   -2.3085    2.6605   -0.0202 C   0  0  0  0  0  0  0  0  0  0  0  0
    4.4423    3.2505   -1.0679 C   0  0  0  0  0  0  0  0  0  0  0  0
   -3.8152    1.1506    0.0358 C   0  0  0  0  0  0  0  0  0  0  0  0
    3.7835   -2.6985    1.4067 C   0  0  0  0  0  0  0  0  0  0  0  0
   -4.4798    2.4412    0.1251 C   0  0  0  0  0  0  0  0  0  0  0  0
   -3.5710    3.4267    0.0954 C   0  0  0  0  0  0  0  0  0  0  0  0
    1.5222   -4.9813    1.0316 C   0  0  0  0  0  0  0  0  0  0  0  0
    4.7070   -2.8888    0.2101 C   0  0  0  0  0  0  0  0  0  0  0  0
   -5.9634    2.5690    0.2444 C   0  0  0  0  0  0  0  0  0  0  0  0
   -5.6365   -2.3077   -2.8197 C   0  0  0  0  0  0  0  0  0  0  0  0
    5.9359    3.4696   -1.0822 C   0  0  0  0  0  0  0  0  0  0  0  0
   -3.7413    4.8402    0.1820 C   0  0  0  0  0  0  0  0  0  0  0  0
    4.3210   -4.0959   -0.6104 C   0  0  0  0  0  0  0  0  0  0  0  0
   -3.7339    5.5258    1.3346 C   0  0  0  0  0  0  0  0  0  0  0  0
    1.6498    3.9195   -0.9973 H   0  0  0  0  0  0  0  0  0  0  0  0
   -3.2956   -4.3726   -1.0383 H   0  0  0  0  0  0  0  0  0  0  0  0
   -5.4034   -2.6276   -0.2010 H   0  0  0  0  0  0  0  0  0  0  0  0
    4.5355    1.7279    0.4383 H   0  0  0  0  0  0  0  0  0  0  0  0
    4.2286    3.3194    1.0791 H   0  0  0  0  0  0  0  0  0  0  0  0
   -0.2347    0.7603    0.4553 H   0  0  0  0  0  0  0  0  0  0  0  0
    2.6028    5.1237    0.9967 H   0  0  0  0  0  0  0  0  0  0  0  0
    0.8679    5.4123    0.8833 H   0  0  0  0  0  0  0  0  0  0  0  0
    1.4928    4.2581    2.0711 H   0  0  0  0  0  0  0  0  0  0  0  0
   -3.2925   -5.1729    1.3238 H   0  0  0  0  0  0  0  0  0  0  0  0
   -4.9474   -4.8930    0.7643 H   0  0  0  0  0  0  0  0  0  0  0  0
   -4.1688   -3.7260    1.8462 H   0  0  0  0  0  0  0  0  0  0  0  0
    3.4454   -0.0481    0.9849 H   0  0  0  0  0  0  0  0  0  0  0  0
   -0.9251   -4.5343   -0.0185 H   0  0  0  0  0  0  0  0  0  0  0  0
   -1.0579    4.4512   -0.3234 H   0  0  0  0  0  0  0  0  0  0  0  0
   -5.5031   -0.1278    0.0951 H   0  0  0  0  0  0  0  0  0  0  0  0
   -3.5606   -2.2251   -2.6849 H   0  0  0  0  0  0  0  0  0  0  0  0
    4.1904    2.5833   -1.9001 H   0  0  0  0  0  0  0  0  0  0  0  0
    3.9697    4.2244   -1.2363 H   0  0  0  0  0  0  0  0  0  0  0  0
    3.8790   -3.5724    2.0643 H   0  0  0  0  0  0  0  0  0  0  0  0
    4.1258   -1.8568    2.0187 H   0  0  0  0  0  0  0  0  0  0  0  0
    2.4889   -5.2987    1.4317 H   0  0  0  0  0  0  0  0  0  0  0  0
    0.7557   -5.3259    1.7331 H   0  0  0  0  0  0  0  0  0  0  0  0
    1.3730   -5.4925    0.0755 H   0  0  0  0  0  0  0  0  0  0  0  0
    5.7449   -3.0069    0.5427 H   0  0  0  0  0  0  0  0  0  0  0  0
    4.6961   -2.0127   -0.4492 H   0  0  0  0  0  0  0  0  0  0  0  0
   -6.3234    2.0695    1.1499 H   0  0  0  0  0  0  0  0  0  0  0  0
   -6.4609    2.1234   -0.6235 H   0  0  0  0  0  0  0  0  0  0  0  0
   -6.2811    3.6151    0.2998 H   0  0  0  0  0  0  0  0  0  0  0  0
   -5.6280   -2.1685   -3.8953 H   0  0  0  0  0  0  0  0  0  0  0  0
   -6.5965   -2.4168   -2.3276 H   0  0  0  0  0  0  0  0  0  0  0  0
   -3.8315    5.3794   -0.7564 H   0  0  0  0  0  0  0  0  0  0  0  0
   -3.8430    6.6049    1.3299 H   0  0  0  0  0  0  0  0  0  0  0  0
   -3.6201    5.0305    2.2931 H   0  0  0  0  0  0  0  0  0  0  0  0
    7.3448    4.1836   -2.2218 H   0  0  0  0  0  0  0  0  0  0  0  0
    4.6420   -6.0139   -0.7150 H   0  0  0  0  0  0  0  0  0  0  0  0
  1 39  1  0  0  0  0
  1 77  1  0  0  0  0
  2 39  2  0  0  0  0
  3 41  1  0  0  0  0
  3 78  1  0  0  0  0
  4 41  2  0  0  0  0
  5 13  1  0  0  0  0
  5 14  1  0  0  0  0
  5 48  1  0  0  0  0
  6 15  1  0  0  0  0
  6 16  2  0  0  0  0
  7 21  1  0  0  0  0
  7 25  2  0  0  0  0
  8 29  2  0  0  0  0
  8 31  1  0  0  0  0
  9 12  1  0  0  0  0
  9 13  1  0  0  0  0
  9 18  1  0  0  0  0
  9 43  1  0  0  0  0
 10 11  1  0  0  0  0
 10 15  1  0  0  0  0
 10 19  1  0  0  0  0
 10 44  1  0  0  0  0
 11 16  1  0  0  0  0
 11 28  1  0  0  0  0
 11 45  1  0  0  0  0
 12 14  2  0  0  0  0
 12 17  1  0  0  0  0
 13 24  2  0  0  0  0
 14 20  1  0  0  0  0
 15 23  2  0  0  0  0
 16 27  1  0  0  0  0
 17 30  1  0  0  0  0
 17 46  1  0  0  0  0
 17 47  1  0  0  0  0
 18 49  1  0  0  0  0
 18 50  1  0  0  0  0
 18 51  1  0  0  0  0
 19 52  1  0  0  0  0
 19 53  1  0  0  0  0
 19 54  1  0  0  0  0
 20 21  2  0  0  0  0
 20 55  1  0  0  0  0
 21 22  1  0  0  0  0
 22 26  2  0  0  0  0
 22 32  1  0  0  0  0
 23 25  1  0  0  0  0
 23 56  1  0  0  0  0
 24 29  1  0  0  0  0
 24 57  1  0  0  0  0
 25 26  1  0  0  0  0
 26 35  1  0  0  0  0
 27 31  2  0  0  0  0
 27 58  1  0  0  0  0
 28 38  2  0  0  0  0
 28 59  1  0  0  0  0
 29 34  1  0  0  0  0
 30 39  1  0  0  0  0
 30 60  1  0  0  0  0
 30 61  1  0  0  0  0
 31 33  1  0  0  0  0
 32 36  1  0  0  0  0
 32 62  1  0  0  0  0
 32 63  1  0  0  0  0
 33 34  2  0  0  0  0
 33 37  1  0  0  0  0
 34 40  1  0  0  0  0
 35 64  1  0  0  0  0
 35 65  1  0  0  0  0
 35 66  1  0  0  0  0
 36 41  1  0  0  0  0
 36 67  1  0  0  0  0
 36 68  1  0  0  0  0
 37 69  1  0  0  0  0
 37 70  1  0  0  0  0
 37 71  1  0  0  0  0
 38 72  1  0  0  0  0
 38 73  1  0  0  0  0
 40 42  2  0  0  0  0
 40 74  1  0  0  0  0
 42 75  1  0  0  0  0
 42 76  1  0  0  0  0
M  END
> <PUBCHEM_COMPOUND_CID>
1040

> <PUBCHEM_CONFORMER_RMSD>
1

> <PUBCHEM_CONFORMER_DIVERSEORDER>
1
2
28
13
9
16
29
17
55
20
12
37
31
14
35
42
39
49
7
22
52
53
8
24
34
11
33
23
18
19
36
50
26
46
5
48
3
45
32
25
10
43
38
21
47
41
27
15
54
51
40
4
6
30
44

> <PUBCHEM_MMFF94_PARTIAL_CHARGES>
53
1 -0.65
10 0.14
11 0.2
12 -0.28
13 -0.04
14 0.1
15 0.03
16 0.37
17 0.14
2 -0.57
20 -0.15
21 0.17
22 -0.14
23 -0.14
24 -0.14
25 0.42
26 -0.12
27 -0.14
28 -0.29
29 0.42
3 -0.65
30 0.06
31 0.17
32 0.14
33 -0.14
34 0.01
35 0.14
36 0.06
37 0.14
38 -0.3
39 0.66
4 -0.57
40 -0.15
41 0.66
42 -0.3
48 0.4
5 -0.6
55 0.15
56 0.15
57 0.15
58 0.15
59 0.15
6 -0.62
7 -0.62
72 0.15
73 0.15
74 0.15
75 0.15
76 0.15
77 0.5
78 0.5
8 -0.62
9 0.28

> <PUBCHEM_EFFECTIVE_ROTOR_COUNT>
8.6

> <PUBCHEM_PHARMACOPHORE_FEATURES>
17
1 1 acceptor
1 2 acceptor
1 3 acceptor
1 38 hydrophobe
1 4 acceptor
1 42 hydrophobe
1 5 cation
1 5 donor
1 6 acceptor
1 7 acceptor
1 8 acceptor
3 1 2 39 anion
3 3 4 41 anion
5 5 9 12 13 14 rings
5 6 10 11 15 16 rings
5 7 21 22 25 26 rings
5 8 29 31 33 34 rings

> <PUBCHEM_HEAVY_ATOM_COUNT>
42

> <PUBCHEM_ATOM_DEF_STEREO_COUNT>
0

> <PUBCHEM_ATOM_UDEF_STEREO_COUNT>
3

> <PUBCHEM_BOND_DEF_STEREO_COUNT>
0

> <PUBCHEM_BOND_UDEF_STEREO_COUNT>
0

> <PUBCHEM_ISOTOPIC_ATOM_COUNT>
0

> <PUBCHEM_COMPONENT_COUNT>
1

> <PUBCHEM_CACTVS_TAUTO_COUNT>
4

> <PUBCHEM_CONFORMER_ID>
0000041000000001

> <PUBCHEM_MMFF94_ENERGY>
107.0645

> <PUBCHEM_FEATURE_SELFOVERLAP>
86.394

> <PUBCHEM_SHAPE_FINGERPRINT>
10049733 162 17903090163616566516
10190206 1 18118972627241799724
1100329 8 18266455408393904203
11093857 51 17979334675871931962
11135926 11 18191582154330076983
11136131 41 18188475970259019938
11227688 84 17836074951146425023
11513181 2 18272367581190667798
12440605 4 18411149025664768913
12677640 9 18126559026025339321
14394314 77 17545888122484976776
14790565 3 18335987553737260816
15001296 14 18261673683822083234
15160629 131 17986388000632413879
15320467 1 18266174127070523585
15351339 4 18264479753476252218
15927050 60 18411423903598391084
17627616 140 18336269019790986816
19311894 1 18053090736508452271
19319366 153 17246407577860304131
19611394 137 17972902276011670803
20764821 26 18337381665465625281
21796203 349 17545921163668301376
22113638 7 17979062791952767113
3388396 114 18196921374494858031
3882209 13 17834628917235385715
9961470 85 18340470198160977273

> <PUBCHEM_SHAPE_MULTIPOLES>
820.94
13.41
10.39
1.39
5.12
0.9
-0.88
4.28
-5.27
3.88
0.6
-0.25
-0.47
-4.22

> <PUBCHEM_SHAPE_SELFOVERLAP>
1783.447

> <PUBCHEM_SHAPE_VOLUME>
451.3

> <PUBCHEM_COORDINATE_TYPE>
2
5
10

$$$$
