771
  -OEChem-08152603112D

130134  0     1  0  0  0  0  0999 V2000
   11.0784   -0.4313    0.0000 O   0  0  0  0  0  0  0  0  0  0  0  0
    2.5369   -4.6318    0.0000 O   0  0  0  0  0  0  0  0  0  0  0  0
    3.4030   -6.1318    0.0000 O   0  0  0  0  0  0  0  0  0  0  0  0
    7.8116  -10.4563    0.0000 O   0  0  0  0  0  0  0  0  0  0  0  0
    6.5270   -9.2945    0.0000 O   0  0  0  0  0  0  0  0  0  0  0  0
    9.0062   -2.7617    0.0000 N   0  0  0  0  0  0  0  0  0  0  0  0
    7.5363   -4.1312    0.0000 N   0  0  0  0  0  0  0  0  0  0  0  0
    9.0397   -5.5007    0.0000 N   0  0  0  0  0  0  0  0  0  0  0  0
   10.5415   -4.1312    0.0000 N   0  0  0  0  0  0  0  0  0  0  0  0
    9.5068   -1.1595    0.0000 C   0  0  3  0  0  0  0  0  0  0  0  0
    8.5056   -1.1595    0.0000 C   0  0  3  0  0  0  0  0  0  0  0  0
    8.2043   -2.1272    0.0000 C   0  0  3  0  0  0  0  0  0  0  0  0
    9.8416   -2.0937    0.0000 C   0  0  3  0  0  0  0  0  0  0  0  0
   10.0824   -0.3417    0.0000 C   0  0  3  0  0  0  0  0  0  0  0  0
    6.0010   -4.6318    0.0000 C   0  0  3  0  0  0  0  0  0  0  0  0
    6.0010   -3.6306    0.0000 C   0  0  3  0  0  0  0  0  0  0  0  0
    6.9687   -4.8996    0.0000 C   0  0  3  0  0  0  0  0  0  0  0  0
    6.9687   -3.3627    0.0000 C   0  0  0  0  0  0  0  0  0  0  0  0
    7.2366   -2.3950    0.0000 C   0  0  0  0  0  0  0  0  0  0  0  0
    7.9129   -0.3541    0.0000 C   0  0  0  0  0  0  0  0  0  0  0  0
   10.8093   -2.3950    0.0000 C   0  0  0  0  0  0  0  0  0  0  0  0
    9.6620    0.5656    0.0000 C   0  0  0  0  0  0  0  0  0  0  0  0
    5.1350   -5.1318    0.0000 C   0  0  0  0  0  0  0  0  0  0  0  0
    7.2701   -5.8338    0.0000 C   0  0  0  0  0  0  0  0  0  0  0  0
    5.2052   -3.0251    0.0000 C   0  0  0  0  0  0  0  0  0  0  0  0
   11.1090   -3.3292    0.0000 C   0  0  0  0  0  0  0  0  0  0  0  0
    8.5391   -7.0694    0.0000 C   0  0  3  0  0  0  0  0  0  0  0  0
    8.2378   -6.1352    0.0000 C   0  0  0  0  0  0  0  0  0  0  0  0
    9.5403   -7.0694    0.0000 C   0  0  3  0  0  0  0  0  0  0  0  0
   12.0784   -3.5971    0.0000 C   0  0  3  0  0  0  0  0  0  0  0  0
   10.2376    1.3834    0.0000 C   0  0  0  0  0  0  0  0  0  0  0  0
    4.2690   -4.6318    0.0000 C   0  0  0  0  0  0  0  0  0  0  0  0
    9.8416   -6.1017    0.0000 C   0  0  0  0  0  0  0  0  0  0  0  0
   11.1425   -4.8662    0.0000 C   0  0  0  0  0  0  0  0  0  0  0  0
    7.8684   -7.8111    0.0000 C   0  0  0  0  0  0  0  0  0  0  0  0
   12.0784   -4.5983    0.0000 C   0  0  0  0  0  0  0  0  0  0  0  0
   10.8428   -5.8338    0.0000 C   0  0  0  0  0  0  0  0  0  0  0  0
   10.1330   -7.8748    0.0000 C   0  0  0  0  0  0  0  0  0  0  0  0
   12.8741   -2.9914    0.0000 C   0  0  0  0  0  0  0  0  0  0  0  0
    9.8172    2.2907    0.0000 C   0  0  0  0  0  0  0  0  0  0  0  0
    8.1754   -8.7628    0.0000 C   0  0  0  0  0  0  0  0  0  0  0  0
    3.4030   -5.1318    0.0000 C   0  0  0  0  0  0  0  0  0  0  0  0
   12.8769   -5.2003    0.0000 C   0  0  0  0  0  0  0  0  0  0  0  0
   10.3928    3.1084    0.0000 C   0  0  0  0  0  0  0  0  0  0  0  0
    7.5047   -9.5045    0.0000 C   0  0  0  0  0  0  0  0  0  0  0  0
    9.9724    4.0158    0.0000 C   0  0  0  0  0  0  0  0  0  0  0  0
   13.7975   -4.8098    0.0000 C   0  0  0  0  0  0  0  0  0  0  0  0
   11.3887    3.0188    0.0000 C   0  0  0  0  0  0  0  0  0  0  0  0
   10.5480    4.8335    0.0000 C   0  0  0  0  0  0  0  0  0  0  0  0
   10.1276    5.7409    0.0000 C   0  0  0  0  0  0  0  0  0  0  0  0
   10.7031    6.5586    0.0000 C   0  0  0  0  0  0  0  0  0  0  0  0
   10.2827    7.4660    0.0000 C   0  0  0  0  0  0  0  0  0  0  0  0
   11.6991    6.4690    0.0000 C   0  0  0  0  0  0  0  0  0  0  0  0
   10.8583    8.2837    0.0000 C   0  0  0  0  0  0  0  0  0  0  0  0
   10.4379    9.1910    0.0000 C   0  0  0  0  0  0  0  0  0  0  0  0
   11.0135   10.0088    0.0000 C   0  0  0  0  0  0  0  0  0  0  0  0
   10.5931   10.9161    0.0000 C   0  0  0  0  0  0  0  0  0  0  0  0
   12.0095    9.9192    0.0000 C   0  0  0  0  0  0  0  0  0  0  0  0
    9.2212   -0.6092    0.0000 H   0  0  0  0  0  0  0  0  0  0  0  0
    8.7854   -0.6062    0.0000 H   0  0  0  0  0  0  0  0  0  0  0  0
    7.7729   -1.6818    0.0000 H   0  0  0  0  0  0  0  0  0  0  0  0
   10.2707   -1.6461    0.0000 H   0  0  0  0  0  0  0  0  0  0  0  0
    9.0078   -3.3817    0.0000 H   0  0  0  0  0  0  0  0  0  0  0  0
   10.3430   -0.9043    0.0000 H   0  0  0  0  0  0  0  0  0  0  0  0
    6.0794   -5.2468    0.0000 H   0  0  0  0  0  0  0  0  0  0  0  0
    6.1182   -3.0218    0.0000 H   0  0  0  0  0  0  0  0  0  0  0  0
    6.5396   -5.3472    0.0000 H   0  0  0  0  0  0  0  0  0  0  0  0
    6.7982   -1.9566    0.0000 H   0  0  0  0  0  0  0  0  0  0  0  0
    8.4122    0.0134    0.0000 H   0  0  0  0  0  0  0  0  0  0  0  0
    7.5454    0.1452    0.0000 H   0  0  0  0  0  0  0  0  0  0  0  0
    7.4136   -0.7216    0.0000 H   0  0  0  0  0  0  0  0  0  0  0  0
    8.1563   -4.1312    0.0000 H   0  0  0  0  0  0  0  0  0  0  0  0
   11.2459   -1.9548    0.0000 H   0  0  0  0  0  0  0  0  0  0  0  0
    9.2247    1.0051    0.0000 H   0  0  0  0  0  0  0  0  0  0  0  0
    9.1532    0.2112    0.0000 H   0  0  0  0  0  0  0  0  0  0  0  0
    4.7365   -5.6067    0.0000 H   0  0  0  0  0  0  0  0  0  0  0  0
    5.5336   -5.6067    0.0000 H   0  0  0  0  0  0  0  0  0  0  0  0
    6.8339   -6.2745    0.0000 H   0  0  0  0  0  0  0  0  0  0  0  0
    5.5806   -2.5317    0.0000 H   0  0  0  0  0  0  0  0  0  0  0  0
    4.7117   -2.6497    0.0000 H   0  0  0  0  0  0  0  0  0  0  0  0
    4.8298   -3.5186    0.0000 H   0  0  0  0  0  0  0  0  0  0  0  0
    8.7907   -7.6361    0.0000 H   0  0  0  0  0  0  0  0  0  0  0  0
    9.2605   -7.6227    0.0000 H   0  0  0  0  0  0  0  0  0  0  0  0
   12.6339   -3.8724    0.0000 H   0  0  0  0  0  0  0  0  0  0  0  0
   11.4352    0.0757    0.0000 H   0  0  0  0  0  0  0  0  0  0  0  0
   10.6749    0.9439    0.0000 H   0  0  0  0  0  0  0  0  0  0  0  0
   10.7463    1.7377    0.0000 H   0  0  0  0  0  0  0  0  0  0  0  0
    4.6675   -4.1568    0.0000 H   0  0  0  0  0  0  0  0  0  0  0  0
    3.8704   -4.1569    0.0000 H   0  0  0  0  0  0  0  0  0  0  0  0
    9.0316   -4.8807    0.0000 H   0  0  0  0  0  0  0  0  0  0  0  0
    9.9218   -4.1527    0.0000 H   0  0  0  0  0  0  0  0  0  0  0  0
    7.4877   -7.3217    0.0000 H   0  0  0  0  0  0  0  0  0  0  0  0
    7.3204   -8.1010    0.0000 H   0  0  0  0  0  0  0  0  0  0  0  0
   11.2726   -6.2807    0.0000 H   0  0  0  0  0  0  0  0  0  0  0  0
    9.6337   -8.2423    0.0000 H   0  0  0  0  0  0  0  0  0  0  0  0
   10.5005   -8.3741    0.0000 H   0  0  0  0  0  0  0  0  0  0  0  0
   10.6324   -7.5073    0.0000 H   0  0  0  0  0  0  0  0  0  0  0  0
   13.2496   -3.4848    0.0000 H   0  0  0  0  0  0  0  0  0  0  0  0
   13.3674   -2.6159    0.0000 H   0  0  0  0  0  0  0  0  0  0  0  0
   12.4986   -2.4981    0.0000 H   0  0  0  0  0  0  0  0  0  0  0  0
    9.1997    2.3462    0.0000 H   0  0  0  0  0  0  0  0  0  0  0  0
    8.5561   -9.2522    0.0000 H   0  0  0  0  0  0  0  0  0  0  0  0
    8.7234   -8.4729    0.0000 H   0  0  0  0  0  0  0  0  0  0  0  0
   12.8012   -5.8156    0.0000 H   0  0  0  0  0  0  0  0  0  0  0  0
    9.5350    4.4553    0.0000 H   0  0  0  0  0  0  0  0  0  0  0  0
    9.4636    3.6614    0.0000 H   0  0  0  0  0  0  0  0  0  0  0  0
    2.0000   -4.9418    0.0000 H   0  0  0  0  0  0  0  0  0  0  0  0
   14.2925   -5.1830    0.0000 H   0  0  0  0  0  0  0  0  0  0  0  0
   13.8732   -4.1944    0.0000 H   0  0  0  0  0  0  0  0  0  0  0  0
   11.3332    2.4013    0.0000 H   0  0  0  0  0  0  0  0  0  0  0  0
   12.0063    2.9633    0.0000 H   0  0  0  0  0  0  0  0  0  0  0  0
   11.4443    3.6364    0.0000 H   0  0  0  0  0  0  0  0  0  0  0  0
   10.9853    4.3940    0.0000 H   0  0  0  0  0  0  0  0  0  0  0  0
   11.0567    5.1879    0.0000 H   0  0  0  0  0  0  0  0  0  0  0  0
    7.3958  -10.9161    0.0000 H   0  0  0  0  0  0  0  0  0  0  0  0
    9.5100    5.7964    0.0000 H   0  0  0  0  0  0  0  0  0  0  0  0
    9.8454    7.9054    0.0000 H   0  0  0  0  0  0  0  0  0  0  0  0
    9.7740    7.1116    0.0000 H   0  0  0  0  0  0  0  0  0  0  0  0
   11.6436    5.8515    0.0000 H   0  0  0  0  0  0  0  0  0  0  0  0
   12.3166    6.4135    0.0000 H   0  0  0  0  0  0  0  0  0  0  0  0
   11.7547    7.0865    0.0000 H   0  0  0  0  0  0  0  0  0  0  0  0
   11.2957    7.8442    0.0000 H   0  0  0  0  0  0  0  0  0  0  0  0
   11.3671    8.6381    0.0000 H   0  0  0  0  0  0  0  0  0  0  0  0
    9.8204    9.2466    0.0000 H   0  0  0  0  0  0  0  0  0  0  0  0
   11.1557   11.1768    0.0000 H   0  0  0  0  0  0  0  0  0  0  0  0
   10.3325   11.4787    0.0000 H   0  0  0  0  0  0  0  0  0  0  0  0
   10.0306   10.6555    0.0000 H   0  0  0  0  0  0  0  0  0  0  0  0
   11.9539    9.3017    0.0000 H   0  0  0  0  0  0  0  0  0  0  0  0
   12.6270    9.8636    0.0000 H   0  0  0  0  0  0  0  0  0  0  0  0
   12.0650   10.5367    0.0000 H   0  0  0  0  0  0  0  0  0  0  0  0
  1 14  1  0  0  0  0
  1 85  1  0  0  0  0
  2 42  1  0  0  0  0
  2107  1  0  0  0  0
  3 42  2  0  0  0  0
  4 45  1  0  0  0  0
  4115  1  0  0  0  0
  5 45  2  0  0  0  0
  6 12  1  0  0  0  0
  6 13  1  0  0  0  0
  6 63  1  0  0  0  0
  7 17  1  0  0  0  0
  7 18  1  0  0  0  0
  7 72  1  0  0  0  0
  8 28  1  0  0  0  0
  8 33  1  0  0  0  0
  8 90  1  0  0  0  0
  9 26  1  0  0  0  0
  9 34  1  0  0  0  0
  9 91  1  0  0  0  0
 10 11  1  0  0  0  0
 10 13  1  0  0  0  0
 10 14  1  0  0  0  0
 10 59  1  0  0  0  0
 11 12  1  0  0  0  0
 11 20  1  0  0  0  0
 11 60  1  0  0  0  0
 12 19  1  0  0  0  0
 12 61  1  0  0  0  0
 13 21  1  0  0  0  0
 13 62  1  0  0  0  0
 14 22  1  0  0  0  0
 14 64  1  0  0  0  0
 15 16  1  0  0  0  0
 15 17  1  0  0  0  0
 15 23  1  0  0  0  0
 15 65  1  0  0  0  0
 16 18  1  0  0  0  0
 16 25  1  0  0  0  0
 16 66  1  0  0  0  0
 17 24  1  0  0  0  0
 17 67  1  0  0  0  0
 18 19  2  3  0  0  0
 19 68  1  0  0  0  0
 20 69  1  0  0  0  0
 20 70  1  0  0  0  0
 20 71  1  0  0  0  0
 21 26  2  3  0  0  0
 21 73  1  0  0  0  0
 22 31  1  0  0  0  0
 22 74  1  0  0  0  0
 22 75  1  0  0  0  0
 23 32  1  0  0  0  0
 23 76  1  0  0  0  0
 23 77  1  0  0  0  0
 24 28  2  3  0  0  0
 24 78  1  0  0  0  0
 25 79  1  0  0  0  0
 25 80  1  0  0  0  0
 25 81  1  0  0  0  0
 26 30  1  0  0  0  0
 27 28  1  0  0  0  0
 27 29  1  0  0  0  0
 27 35  1  0  0  0  0
 27 82  1  0  0  0  0
 29 33  1  0  0  0  0
 29 38  1  0  0  0  0
 29 83  1  0  0  0  0
 30 36  1  0  0  0  0
 30 39  1  0  0  0  0
 30 84  1  0  0  0  0
 31 40  1  0  0  0  0
 31 86  1  0  0  0  0
 31 87  1  0  0  0  0
 32 42  1  0  0  0  0
 32 88  1  0  0  0  0
 32 89  1  0  0  0  0
 33 37  2  3  0  0  0
 34 36  2  0  0  0  0
 34 37  1  0  0  0  0
 35 41  1  0  0  0  0
 35 92  1  0  0  0  0
 35 93  1  0  0  0  0
 36 43  1  0  0  0  0
 37 94  1  0  0  0  0
 38 95  1  0  0  0  0
 38 96  1  0  0  0  0
 38 97  1  0  0  0  0
 39 98  1  0  0  0  0
 39 99  1  0  0  0  0
 39100  1  0  0  0  0
 40 44  2  3  0  0  0
 40101  1  0  0  0  0
 41 45  1  0  0  0  0
 41102  1  0  0  0  0
 41103  1  0  0  0  0
 43 47  2  0  0  0  0
 43104  1  0  0  0  0
 44 46  1  0  0  0  0
 44 48  1  0  0  0  0
 46 49  1  0  0  0  0
 46105  1  0  0  0  0
 46106  1  0  0  0  0
 47108  1  0  0  0  0
 47109  1  0  0  0  0
 48110  1  0  0  0  0
 48111  1  0  0  0  0
 48112  1  0  0  0  0
 49 50  1  0  0  0  0
 49113  1  0  0  0  0
 49114  1  0  0  0  0
 50 51  2  3  0  0  0
 50116  1  0  0  0  0
 51 52  1  0  0  0  0
 51 53  1  0  0  0  0
 52 54  1  0  0  0  0
 52117  1  0  0  0  0
 52118  1  0  0  0  0
 53119  1  0  0  0  0
 53120  1  0  0  0  0
 53121  1  0  0  0  0
 54 55  1  0  0  0  0
 54122  1  0  0  0  0
 54123  1  0  0  0  0
 55 56  2  0  0  0  0
 55124  1  0  0  0  0
 56 57  1  0  0  0  0
 56 58  1  0  0  0  0
 57125  1  0  0  0  0
 57126  1  0  0  0  0
 57127  1  0  0  0  0
 58128  1  0  0  0  0
 58129  1  0  0  0  0
 58130  1  0  0  0  0
M  END
> <PUBCHEM_COMPOUND_CID>
771

> <PUBCHEM_COMPOUND_CANONICALIZED>
1

> <PUBCHEM_CACTVS_COMPLEXITY>
1790

> <PUBCHEM_CACTVS_HBOND_ACCEPTOR>
9

> <PUBCHEM_CACTVS_HBOND_DONOR>
7

> <PUBCHEM_CACTVS_ROTATABLE_BOND>
17

> <PUBCHEM_CACTVS_SUBSKEYS>
AAADcfB/uAAAAAAAAAAAAAAAAAAAAWLFiAAAAAAAAAAAAAAAAAAAHgAQCAAADTzhgAYCCALAAgCIAiTSSACAAAAgAgAICIEIAAgIEBIAgQAEQAAGkACIgAO42dMegAAAAAAAAAAAAAAAAAAAAAAAAAAAAA==

> <PUBCHEM_IUPAC_OPENEYE_NAME>
3-[18-(2-carboxyethyl)-8-(1-hydroxy-5,9,13-trimethyl-tetradeca-4,8,12-trienyl)-3,7,12,17-tetramethyl-13-vinyl-1,2,3,6,7,8,9,12,17,18,21,22,23,24-tetradecahydroporphyrin-2-yl]propanoic acid

> <PUBCHEM_IUPAC_CAS_NAME>
3-[18-(2-carboxyethyl)-13-ethenyl-8-(1-hydroxy-5,9,13-trimethyltetradeca-4,8,12-trienyl)-3,7,12,17-tetramethyl-1,2,3,6,7,8,9,12,17,18,21,22,23,24-tetradecahydroporphyrin-2-yl]propanoic acid

> <PUBCHEM_IUPAC_NAME_MARKUP>
3-[18-(2-carboxyethyl)-13-ethenyl-8-(1-hydroxy-5,9,13-trimethyltetradeca-4,8,12-trienyl)-3,7,12,17-tetramethyl-1,2,3,6,7,8,9,12,17,18,21,22,23,24-tetradecahydroporphyrin-2-yl]propanoic acid

> <PUBCHEM_IUPAC_NAME>
3-[18-(2-carboxyethyl)-13-ethenyl-8-(1-hydroxy-5,9,13-trimethyltetradeca-4,8,12-trienyl)-3,7,12,17-tetramethyl-1,2,3,6,7,8,9,12,17,18,21,22,23,24-tetradecahydroporphyrin-2-yl]propanoic acid

> <PUBCHEM_IUPAC_SYSTEMATIC_NAME>
3-[13-ethenyl-18-(3-hydroxy-3-oxopropyl)-3,7,12,17-tetramethyl-8-(5,9,13-trimethyl-1-oxidanyl-tetradeca-4,8,12-trienyl)-1,2,3,6,7,8,9,12,17,18,21,22,23,24-tetradecahydroporphyrin-2-yl]propanoic acid

> <PUBCHEM_IUPAC_TRADITIONAL_NAME>
3-[18-(2-carboxyethyl)-8-(1-hydroxy-5,9,13-trimethyl-tetradeca-4,8,12-trienyl)-3,7,12,17-tetramethyl-13-vinyl-1,2,3,6,7,8,9,12,17,18,21,22,23,24-tetradecahydroporphin-2-yl]propionic acid

> <PUBCHEM_IUPAC_INCHI>
InChI=1S/C49H72N4O5/c1-10-35-31(6)40-26-45-49(46(54)19-13-18-30(5)17-12-16-29(4)15-11-14-28(2)3)34(9)41(53-45)24-38-32(7)36(20-22-47(55)56)43(51-38)27-44-37(21-23-48(57)58)33(8)39(52-44)25-42(35)50-40/h10,14,16,18,24-27,31-34,36-37,41,43,45-46,49-54H,1,11-13,15,17,19-23H2,2-9H3,(H,55,56)(H,57,58)

> <PUBCHEM_IUPAC_INCHIKEY>
QDWRZFOSFZXXTP-UHFFFAOYSA-N

> <PUBCHEM_XLOGP3_AA>
6.9

> <PUBCHEM_EXACT_MASS>
796.55027141

> <PUBCHEM_MOLECULAR_FORMULA>
C49H72N4O5

> <PUBCHEM_MOLECULAR_WEIGHT>
797.1

> <PUBCHEM_SMILES>
CC1C2C=C3C(C(C(N3)C=C4C(C(C(=CC5=C(C(C(=CC(C1C(CCC=C(C)CCC=C(C)CCC=C(C)C)O)N2)N5)C)C=C)N4)C)CCC(=O)O)CCC(=O)O)C

> <PUBCHEM_CONNECTIVITY_SMILES>
CC1C2C=C3C(C(C(N3)C=C4C(C(C(=CC5=C(C(C(=CC(C1C(CCC=C(C)CCC=C(C)CCC=C(C)C)O)N2)N5)C)C=C)N4)C)CCC(=O)O)CCC(=O)O)C

> <PUBCHEM_CACTVS_TPSA>
143

> <PUBCHEM_MONOISOTOPIC_WEIGHT>
796.55027141

> <PUBCHEM_TOTAL_CHARGE>
0

> <PUBCHEM_HEAVY_ATOM_COUNT>
58

> <PUBCHEM_ATOM_DEF_STEREO_COUNT>
0

> <PUBCHEM_ATOM_UDEF_STEREO_COUNT>
11

> <PUBCHEM_BOND_DEF_STEREO_COUNT>
0

> <PUBCHEM_BOND_UDEF_STEREO_COUNT>
6

> <PUBCHEM_ISOTOPIC_ATOM_COUNT>
0

> <PUBCHEM_COMPONENT_COUNT>
1

> <PUBCHEM_CACTVS_TAUTO_COUNT>
-1

> <PUBCHEM_COORDINATE_TYPE>
1
5
255

> <PUBCHEM_BONDANNOTATIONS>
14  1  3
10  14  3
11  20  3
12  19  3
13  21  3
15  23  3
16  25  3
17  24  3
18  19  1
21  26  1
24  28  1
27  35  3
29  38  3
30  39  3
33  37  1
40  44  1
50  51  1

$$$$
