1037
  -OEChem-08152603372D

 88 92  0     1  0  0  0  0  0999 V2000
    7.8116   -5.2810    0.0000 O   0  0  0  0  0  0  0  0  0  0  0  0
    6.5270   -4.1193    0.0000 O   0  0  0  0  0  0  0  0  0  0  0  0
    2.5369    0.5434    0.0000 O   0  0  0  0  0  0  0  0  0  0  0  0
    3.4030   -0.9566    0.0000 O   0  0  0  0  0  0  0  0  0  0  0  0
    9.0062    2.4136    0.0000 N   0  0  0  0  0  0  0  0  0  0  0  0
   10.5415    1.0441    0.0000 N   0  0  0  0  0  0  0  0  0  0  0  0
    9.0397   -0.3254    0.0000 N   0  0  0  0  0  0  0  0  0  0  0  0
    7.5363    1.0441    0.0000 N   0  0  0  0  0  0  0  0  0  0  0  0
    8.5056    4.0158    0.0000 C   0  0  3  0  0  0  0  0  0  0  0  0
    9.5068    4.0158    0.0000 C   0  0  3  0  0  0  0  0  0  0  0  0
    9.8416    3.0816    0.0000 C   0  0  3  0  0  0  0  0  0  0  0  0
    8.2043    3.0481    0.0000 C   0  0  3  0  0  0  0  0  0  0  0  0
   12.0784    1.5781    0.0000 C   0  0  3  0  0  0  0  0  0  0  0  0
   12.0784    0.5770    0.0000 C   0  0  3  0  0  0  0  0  0  0  0  0
   11.1425    0.3091    0.0000 C   0  0  3  0  0  0  0  0  0  0  0  0
   11.1090    1.8460    0.0000 C   0  0  0  0  0  0  0  0  0  0  0  0
   10.8093    2.7802    0.0000 C   0  0  0  0  0  0  0  0  0  0  0  0
    7.2366    2.7802    0.0000 C   0  0  0  0  0  0  0  0  0  0  0  0
    7.9129    4.8212    0.0000 C   0  0  0  0  0  0  0  0  0  0  0  0
    9.5403   -1.8942    0.0000 C   0  0  3  0  0  0  0  0  0  0  0  0
    8.5391   -1.8942    0.0000 C   0  0  3  0  0  0  0  0  0  0  0  0
    9.8416   -0.9265    0.0000 C   0  0  0  0  0  0  0  0  0  0  0  0
   10.8428   -0.6586    0.0000 C   0  0  0  0  0  0  0  0  0  0  0  0
   10.0824    4.8335    0.0000 C   0  0  0  0  0  0  0  0  0  0  0  0
    6.9687    1.8125    0.0000 C   0  0  0  0  0  0  0  0  0  0  0  0
    8.2378   -0.9600    0.0000 C   0  0  0  0  0  0  0  0  0  0  0  0
    6.0010    1.5447    0.0000 C   0  0  3  0  0  0  0  0  0  0  0  0
   12.8741    2.1838    0.0000 C   0  0  0  0  0  0  0  0  0  0  0  0
   12.8769   -0.0250    0.0000 C   0  0  0  0  0  0  0  0  0  0  0  0
    6.0010    0.5435    0.0000 C   0  0  0  0  0  0  0  0  0  0  0  0
    7.8684   -2.6359    0.0000 C   0  0  0  0  0  0  0  0  0  0  0  0
    6.9687    0.2756    0.0000 C   0  0  0  0  0  0  0  0  0  0  0  0
    7.2701   -0.6586    0.0000 C   0  0  0  0  0  0  0  0  0  0  0  0
   10.1330   -2.6995    0.0000 C   0  0  0  0  0  0  0  0  0  0  0  0
    5.2052    2.1501    0.0000 C   0  0  0  0  0  0  0  0  0  0  0  0
    5.1350    0.0435    0.0000 C   0  0  0  0  0  0  0  0  0  0  0  0
    9.6620    5.7409    0.0000 C   0  0  0  0  0  0  0  0  0  0  0  0
    8.1754   -3.5876    0.0000 C   0  0  0  0  0  0  0  0  0  0  0  0
   13.7975    0.3655    0.0000 C   0  0  0  0  0  0  0  0  0  0  0  0
    4.2690    0.5435    0.0000 C   0  0  0  0  0  0  0  0  0  0  0  0
    7.5047   -4.3293    0.0000 C   0  0  0  0  0  0  0  0  0  0  0  0
    3.4030    0.0434    0.0000 C   0  0  0  0  0  0  0  0  0  0  0  0
    8.7854    4.5691    0.0000 H   0  0  0  0  0  0  0  0  0  0  0  0
   10.1212    3.9326    0.0000 H   0  0  0  0  0  0  0  0  0  0  0  0
   10.2707    3.5292    0.0000 H   0  0  0  0  0  0  0  0  0  0  0  0
    7.7729    3.4934    0.0000 H   0  0  0  0  0  0  0  0  0  0  0  0
    9.0078    1.7936    0.0000 H   0  0  0  0  0  0  0  0  0  0  0  0
   12.6339    1.3028    0.0000 H   0  0  0  0  0  0  0  0  0  0  0  0
   11.9652   -0.0326    0.0000 H   0  0  0  0  0  0  0  0  0  0  0  0
   11.5762   -0.1340    0.0000 H   0  0  0  0  0  0  0  0  0  0  0  0
   11.2459    3.2205    0.0000 H   0  0  0  0  0  0  0  0  0  0  0  0
    9.9218    1.0225    0.0000 H   0  0  0  0  0  0  0  0  0  0  0  0
    6.7982    3.2186    0.0000 H   0  0  0  0  0  0  0  0  0  0  0  0
    9.2605   -2.4474    0.0000 H   0  0  0  0  0  0  0  0  0  0  0  0
    8.4122    5.1887    0.0000 H   0  0  0  0  0  0  0  0  0  0  0  0
    7.5454    5.3205    0.0000 H   0  0  0  0  0  0  0  0  0  0  0  0
    7.4136    4.4537    0.0000 H   0  0  0  0  0  0  0  0  0  0  0  0
    8.7907   -2.4608    0.0000 H   0  0  0  0  0  0  0  0  0  0  0  0
   11.2726   -1.1054    0.0000 H   0  0  0  0  0  0  0  0  0  0  0  0
   10.6999    4.7780    0.0000 H   0  0  0  0  0  0  0  0  0  0  0  0
    6.1182    2.1535    0.0000 H   0  0  0  0  0  0  0  0  0  0  0  0
   13.2496    1.6905    0.0000 H   0  0  0  0  0  0  0  0  0  0  0  0
   13.3674    2.5593    0.0000 H   0  0  0  0  0  0  0  0  0  0  0  0
   12.4986    2.6772    0.0000 H   0  0  0  0  0  0  0  0  0  0  0  0
    9.0316    0.2945    0.0000 H   0  0  0  0  0  0  0  0  0  0  0  0
   12.8012   -0.6404    0.0000 H   0  0  0  0  0  0  0  0  0  0  0  0
    7.4877   -2.1465    0.0000 H   0  0  0  0  0  0  0  0  0  0  0  0
    7.3204   -2.9258    0.0000 H   0  0  0  0  0  0  0  0  0  0  0  0
    8.1563    1.0441    0.0000 H   0  0  0  0  0  0  0  0  0  0  0  0
    6.8339   -1.0992    0.0000 H   0  0  0  0  0  0  0  0  0  0  0  0
    9.6337   -3.0670    0.0000 H   0  0  0  0  0  0  0  0  0  0  0  0
   10.5005   -3.1989    0.0000 H   0  0  0  0  0  0  0  0  0  0  0  0
   10.6324   -2.3320    0.0000 H   0  0  0  0  0  0  0  0  0  0  0  0
    5.5806    2.6436    0.0000 H   0  0  0  0  0  0  0  0  0  0  0  0
    4.7117    2.5255    0.0000 H   0  0  0  0  0  0  0  0  0  0  0  0
    4.8298    1.6567    0.0000 H   0  0  0  0  0  0  0  0  0  0  0  0
    4.7365   -0.4315    0.0000 H   0  0  0  0  0  0  0  0  0  0  0  0
    5.5336   -0.4315    0.0000 H   0  0  0  0  0  0  0  0  0  0  0  0
   10.0189    6.2479    0.0000 H   0  0  0  0  0  0  0  0  0  0  0  0
    9.0445    5.7964    0.0000 H   0  0  0  0  0  0  0  0  0  0  0  0
    8.5560   -4.0770    0.0000 H   0  0  0  0  0  0  0  0  0  0  0  0
    8.7234   -3.2977    0.0000 H   0  0  0  0  0  0  0  0  0  0  0  0
   14.2925   -0.0078    0.0000 H   0  0  0  0  0  0  0  0  0  0  0  0
   13.8732    0.9808    0.0000 H   0  0  0  0  0  0  0  0  0  0  0  0
    4.6675    1.0184    0.0000 H   0  0  0  0  0  0  0  0  0  0  0  0
    3.8704    1.0184    0.0000 H   0  0  0  0  0  0  0  0  0  0  0  0
    7.3958   -5.7409    0.0000 H   0  0  0  0  0  0  0  0  0  0  0  0
    2.0000    0.2334    0.0000 H   0  0  0  0  0  0  0  0  0  0  0  0
  1 41  1  0  0  0  0
  1 87  1  0  0  0  0
  2 41  2  0  0  0  0
  3 42  1  0  0  0  0
  3 88  1  0  0  0  0
  4 42  2  0  0  0  0
  5 11  1  0  0  0  0
  5 12  1  0  0  0  0
  5 47  1  0  0  0  0
  6 15  1  0  0  0  0
  6 16  1  0  0  0  0
  6 52  1  0  0  0  0
  7 22  1  0  0  0  0
  7 26  1  0  0  0  0
  7 65  1  0  0  0  0
  8 25  1  0  0  0  0
  8 32  1  0  0  0  0
  8 69  1  0  0  0  0
  9 10  1  0  0  0  0
  9 12  1  0  0  0  0
  9 19  1  0  0  0  0
  9 43  1  0  0  0  0
 10 11  1  0  0  0  0
 10 24  1  0  0  0  0
 10 44  1  0  0  0  0
 11 17  1  0  0  0  0
 11 45  1  0  0  0  0
 12 18  1  0  0  0  0
 12 46  1  0  0  0  0
 13 14  1  0  0  0  0
 13 16  1  0  0  0  0
 13 28  1  0  0  0  0
 13 48  1  0  0  0  0
 14 15  1  0  0  0  0
 14 29  1  0  0  0  0
 14 49  1  0  0  0  0
 15 23  1  0  0  0  0
 15 50  1  0  0  0  0
 16 17  2  3  0  0  0
 17 51  1  0  0  0  0
 18 25  2  3  0  0  0
 18 53  1  0  0  0  0
 19 55  1  0  0  0  0
 19 56  1  0  0  0  0
 19 57  1  0  0  0  0
 20 21  1  0  0  0  0
 20 22  1  0  0  0  0
 20 34  1  0  0  0  0
 20 54  1  0  0  0  0
 21 26  1  0  0  0  0
 21 31  1  0  0  0  0
 21 58  1  0  0  0  0
 22 23  2  3  0  0  0
 23 59  1  0  0  0  0
 24 37  2  0  0  0  0
 24 60  1  0  0  0  0
 25 27  1  0  0  0  0
 26 33  2  3  0  0  0
 27 30  1  0  0  0  0
 27 35  1  0  0  0  0
 27 61  1  0  0  0  0
 28 62  1  0  0  0  0
 28 63  1  0  0  0  0
 28 64  1  0  0  0  0
 29 39  2  0  0  0  0
 29 66  1  0  0  0  0
 30 32  2  0  0  0  0
 30 36  1  0  0  0  0
 31 38  1  0  0  0  0
 31 67  1  0  0  0  0
 31 68  1  0  0  0  0
 32 33  1  0  0  0  0
 33 70  1  0  0  0  0
 34 71  1  0  0  0  0
 34 72  1  0  0  0  0
 34 73  1  0  0  0  0
 35 74  1  0  0  0  0
 35 75  1  0  0  0  0
 35 76  1  0  0  0  0
 36 40  1  0  0  0  0
 36 77  1  0  0  0  0
 36 78  1  0  0  0  0
 37 79  1  0  0  0  0
 37 80  1  0  0  0  0
 38 41  1  0  0  0  0
 38 81  1  0  0  0  0
 38 82  1  0  0  0  0
 39 83  1  0  0  0  0
 39 84  1  0  0  0  0
 40 42  1  0  0  0  0
 40 85  1  0  0  0  0
 40 86  1  0  0  0  0
M  END
> <PUBCHEM_COMPOUND_CID>
1037

> <PUBCHEM_COMPOUND_CANONICALIZED>
1

> <PUBCHEM_CACTVS_COMPLEXITY>
1310

> <PUBCHEM_CACTVS_HBOND_ACCEPTOR>
8

> <PUBCHEM_CACTVS_HBOND_DONOR>
6

> <PUBCHEM_CACTVS_ROTATABLE_BOND>
8

> <PUBCHEM_CACTVS_SUBSKEYS>
AAADcfB/uAAAAAAAAAAAAAAAAAAAAWLFiAAAAAAAAAAAAAAAAAAAHgAQCAAADSjBgAQCCALAAgCIAiTSSACAAAAgAgAICIEIAAgIABIAgQAEQAAEkACIgAOYWRIOgAAAAAAAAAAAAAAAAAAAAAAAAAAAAA==

> <PUBCHEM_IUPAC_OPENEYE_NAME>
3-[18-(2-carboxyethyl)-3,8,13,17-tetramethyl-7,12-divinyl-2,3,6,7,8,11,12,13,14,17,21,22,23,24-tetradecahydroporphyrin-2-yl]propanoic acid

> <PUBCHEM_IUPAC_CAS_NAME>
3-[18-(2-carboxyethyl)-7,12-bis(ethenyl)-3,8,13,17-tetramethyl-2,3,6,7,8,11,12,13,14,17,21,22,23,24-tetradecahydroporphyrin-2-yl]propanoic acid

> <PUBCHEM_IUPAC_NAME_MARKUP>
3-[18-(2-carboxyethyl)-7,12-bis(ethenyl)-3,8,13,17-tetramethyl-2,3,6,7,8,11,12,13,14,17,21,22,23,24-tetradecahydroporphyrin-2-yl]propanoic acid

> <PUBCHEM_IUPAC_NAME>
3-[18-(2-carboxyethyl)-7,12-bis(ethenyl)-3,8,13,17-tetramethyl-2,3,6,7,8,11,12,13,14,17,21,22,23,24-tetradecahydroporphyrin-2-yl]propanoic acid

> <PUBCHEM_IUPAC_SYSTEMATIC_NAME>
3-[7,12-bis(ethenyl)-18-(3-hydroxy-3-oxopropyl)-3,8,13,17-tetramethyl-2,3,6,7,8,11,12,13,14,17,21,22,23,24-tetradecahydroporphyrin-2-yl]propanoic acid

> <PUBCHEM_IUPAC_TRADITIONAL_NAME>
3-[18-(2-carboxyethyl)-3,8,13,17-tetramethyl-7,12-divinyl-2,3,6,7,8,11,12,13,14,17,21,22,23,24-tetradecahydroporphin-2-yl]propionic acid

> <PUBCHEM_IUPAC_INCHI>
InChI=1S/C34H46N4O4/c1-7-21-17(3)25-13-26-19(5)23(9-11-33(39)40)31(37-26)16-32-24(10-12-34(41)42)20(6)28(38-32)15-30-22(8-2)18(4)27(36-30)14-29(21)35-25/h7-8,13-22,24-25,29-30,35-38H,1-2,9-12H2,3-6H3,(H,39,40)(H,41,42)

> <PUBCHEM_IUPAC_INCHIKEY>
AYFBGXSBTUKFIE-UHFFFAOYSA-N

> <PUBCHEM_XLOGP3_AA>
1.9

> <PUBCHEM_EXACT_MASS>
574.35190596

> <PUBCHEM_MOLECULAR_FORMULA>
C34H46N4O4

> <PUBCHEM_MOLECULAR_WEIGHT>
574.8

> <PUBCHEM_SMILES>
CC1C2C=C3C(C(=C(N3)C=C4C(C(C(=CC5C(C(C(=CC(C1C=C)N2)N5)C)C=C)N4)C)CCC(=O)O)CCC(=O)O)C

> <PUBCHEM_CONNECTIVITY_SMILES>
CC1C2C=C3C(C(=C(N3)C=C4C(C(C(=CC5C(C(C(=CC(C1C=C)N2)N5)C)C=C)N4)C)CCC(=O)O)CCC(=O)O)C

> <PUBCHEM_CACTVS_TPSA>
123

> <PUBCHEM_MONOISOTOPIC_WEIGHT>
574.35190596

> <PUBCHEM_TOTAL_CHARGE>
0

> <PUBCHEM_HEAVY_ATOM_COUNT>
42

> <PUBCHEM_ATOM_DEF_STEREO_COUNT>
0

> <PUBCHEM_ATOM_UDEF_STEREO_COUNT>
10

> <PUBCHEM_BOND_DEF_STEREO_COUNT>
0

> <PUBCHEM_BOND_UDEF_STEREO_COUNT>
4

> <PUBCHEM_ISOTOPIC_ATOM_COUNT>
0

> <PUBCHEM_COMPONENT_COUNT>
1

> <PUBCHEM_CACTVS_TAUTO_COUNT>
-1

> <PUBCHEM_COORDINATE_TYPE>
1
5
255

> <PUBCHEM_BONDANNOTATIONS>
10  24  3
11  17  3
12  18  3
13  28  3
14  29  3
15  23  3
16  17  1
18  25  1
20  34  3
21  31  3
22  23  1
26  33  1
27  35  3
9  19  3

$$$$
