1039
  -OEChem-08152603382D

 94 98  0     1  0  0  0  0  0999 V2000
    8.0511    5.2734    0.0000 O   0  0  0  0  0  0  0  0  0  0  0  0
    6.6561    4.2467    0.0000 O   0  0  0  0  0  0  0  0  0  0  0  0
    2.4934   -0.2026    0.0000 O   0  0  0  0  0  0  0  0  0  0  0  0
    3.5422    1.1759    0.0000 O   0  0  0  0  0  0  0  0  0  0  0  0
    8.9349    0.2284    0.0000 N   0  0  0  0  0  0  0  0  0  0  0  0
    7.4650   -1.1411    0.0000 N   0  0  0  0  0  0  0  0  0  0  0  0
   10.4702   -1.1411    0.0000 N   0  0  0  0  0  0  0  0  0  0  0  0
    8.9684   -2.5106    0.0000 N   0  0  0  0  0  0  0  0  0  0  0  0
    8.1330    0.8629    0.0000 C   0  0  3  0  0  0  0  0  0  0  0  0
    8.4344    1.8306    0.0000 C   0  0  3  0  0  0  0  0  0  0  0  0
    9.7704    0.8964    0.0000 C   0  0  3  0  0  0  0  0  0  0  0  0
    9.4355    1.8306    0.0000 C   0  0  3  0  0  0  0  0  0  0  0  0
    6.8974   -0.3727    0.0000 C   0  0  3  0  0  0  0  0  0  0  0  0
    7.1653    0.5950    0.0000 C   0  0  0  0  0  0  0  0  0  0  0  0
    5.9297   -0.6405    0.0000 C   0  0  3  0  0  0  0  0  0  0  0  0
   10.7381    0.5950    0.0000 C   0  0  0  0  0  0  0  0  0  0  0  0
    5.9297   -1.6417    0.0000 C   0  0  3  0  0  0  0  0  0  0  0  0
   11.0377   -0.3392    0.0000 C   0  0  3  0  0  0  0  0  0  0  0  0
    6.8974   -1.9096    0.0000 C   0  0  3  0  0  0  0  0  0  0  0  0
   12.0071   -0.6070    0.0000 C   0  0  3  0  0  0  0  0  0  0  0  0
    7.8416    2.6360    0.0000 C   0  0  0  0  0  0  0  0  0  0  0  0
   12.0071   -1.6082    0.0000 C   0  0  3  0  0  0  0  0  0  0  0  0
   11.0712   -1.8761    0.0000 C   0  0  3  0  0  0  0  0  0  0  0  0
   10.0111    2.6483    0.0000 C   0  0  0  0  0  0  0  0  0  0  0  0
    5.1339   -0.0351    0.0000 C   0  0  0  0  0  0  0  0  0  0  0  0
    7.1988   -2.8438    0.0000 C   0  0  0  0  0  0  0  0  0  0  0  0
    5.0637   -2.1417    0.0000 C   0  0  0  0  0  0  0  0  0  0  0  0
   10.7715   -2.8438    0.0000 C   0  0  0  0  0  0  0  0  0  0  0  0
   12.8028   -0.0014    0.0000 C   0  0  0  0  0  0  0  0  0  0  0  0
    8.2427    3.5520    0.0000 C   0  0  0  0  0  0  0  0  0  0  0  0
    8.1665   -3.1451    0.0000 C   0  0  0  0  0  0  0  0  0  0  0  0
    4.2116   -0.4216    0.0000 C   0  0  0  0  0  0  0  0  0  0  0  0
    9.7704   -3.1116    0.0000 C   0  0  0  0  0  0  0  0  0  0  0  0
   12.8056   -2.2102    0.0000 C   0  0  0  0  0  0  0  0  0  0  0  0
    8.4678   -4.0793    0.0000 C   0  0  3  0  0  0  0  0  0  0  0  0
    9.4690   -4.0793    0.0000 C   0  0  0  0  0  0  0  0  0  0  0  0
    7.6500    4.3574    0.0000 C   0  0  0  0  0  0  0  0  0  0  0  0
    3.4157    0.1839    0.0000 C   0  0  0  0  0  0  0  0  0  0  0  0
   13.7262   -1.8197    0.0000 C   0  0  0  0  0  0  0  0  0  0  0  0
    7.7971   -4.8210    0.0000 C   0  0  0  0  0  0  0  0  0  0  0  0
   10.0618   -4.8847    0.0000 C   0  0  0  0  0  0  0  0  0  0  0  0
    8.1041   -5.7728    0.0000 C   0  0  0  0  0  0  0  0  0  0  0  0
    7.7016    1.3082    0.0000 H   0  0  0  0  0  0  0  0  0  0  0  0
    8.7141    2.3839    0.0000 H   0  0  0  0  0  0  0  0  0  0  0  0
   10.1994    1.3440    0.0000 H   0  0  0  0  0  0  0  0  0  0  0  0
   10.0499    1.7474    0.0000 H   0  0  0  0  0  0  0  0  0  0  0  0
    6.4590    0.0658    0.0000 H   0  0  0  0  0  0  0  0  0  0  0  0
    7.1096    1.2125    0.0000 H   0  0  0  0  0  0  0  0  0  0  0  0
    6.5478    0.6508    0.0000 H   0  0  0  0  0  0  0  0  0  0  0  0
    6.0469   -0.0317    0.0000 H   0  0  0  0  0  0  0  0  0  0  0  0
    8.9365   -0.3916    0.0000 H   0  0  0  0  0  0  0  0  0  0  0  0
   11.3546    0.6608    0.0000 H   0  0  0  0  0  0  0  0  0  0  0  0
   10.7986    1.2121    0.0000 H   0  0  0  0  0  0  0  0  0  0  0  0
    6.0081   -2.2567    0.0000 H   0  0  0  0  0  0  0  0  0  0  0  0
   11.4671    0.1081    0.0000 H   0  0  0  0  0  0  0  0  0  0  0  0
    6.4683   -2.3571    0.0000 H   0  0  0  0  0  0  0  0  0  0  0  0
   12.5626   -0.8823    0.0000 H   0  0  0  0  0  0  0  0  0  0  0  0
    8.0850   -1.1411    0.0000 H   0  0  0  0  0  0  0  0  0  0  0  0
    7.3255    2.9795    0.0000 H   0  0  0  0  0  0  0  0  0  0  0  0
    7.4137    2.1873    0.0000 H   0  0  0  0  0  0  0  0  0  0  0  0
   12.5620   -1.3316    0.0000 H   0  0  0  0  0  0  0  0  0  0  0  0
   11.5049   -2.3192    0.0000 H   0  0  0  0  0  0  0  0  0  0  0  0
    9.8506   -1.1627    0.0000 H   0  0  0  0  0  0  0  0  0  0  0  0
   10.5181    2.2915    0.0000 H   0  0  0  0  0  0  0  0  0  0  0  0
   10.3680    3.1553    0.0000 H   0  0  0  0  0  0  0  0  0  0  0  0
    9.5041    3.0052    0.0000 H   0  0  0  0  0  0  0  0  0  0  0  0
    5.5892    0.3857    0.0000 H   0  0  0  0  0  0  0  0  0  0  0  0
    4.7986    0.4865    0.0000 H   0  0  0  0  0  0  0  0  0  0  0  0
    6.5824   -2.9102    0.0000 H   0  0  0  0  0  0  0  0  0  0  0  0
    7.1386   -3.4608    0.0000 H   0  0  0  0  0  0  0  0  0  0  0  0
    4.7537   -1.6048    0.0000 H   0  0  0  0  0  0  0  0  0  0  0  0
    4.5268   -2.4517    0.0000 H   0  0  0  0  0  0  0  0  0  0  0  0
    5.3737   -2.6786    0.0000 H   0  0  0  0  0  0  0  0  0  0  0  0
   10.8175   -3.4621    0.0000 H   0  0  0  0  0  0  0  0  0  0  0  0
   11.3876   -2.9137    0.0000 H   0  0  0  0  0  0  0  0  0  0  0  0
   13.1783   -0.4947    0.0000 H   0  0  0  0  0  0  0  0  0  0  0  0
   13.2962    0.3741    0.0000 H   0  0  0  0  0  0  0  0  0  0  0  0
   12.4273    0.4920    0.0000 H   0  0  0  0  0  0  0  0  0  0  0  0
    8.7588    3.2085    0.0000 H   0  0  0  0  0  0  0  0  0  0  0  0
    8.6706    4.0006    0.0000 H   0  0  0  0  0  0  0  0  0  0  0  0
    3.7562   -0.8423    0.0000 H   0  0  0  0  0  0  0  0  0  0  0  0
    4.5469   -0.9431    0.0000 H   0  0  0  0  0  0  0  0  0  0  0  0
   12.7299   -2.8256    0.0000 H   0  0  0  0  0  0  0  0  0  0  0  0
    8.7194   -4.6460    0.0000 H   0  0  0  0  0  0  0  0  0  0  0  0
   14.2212   -2.1929    0.0000 H   0  0  0  0  0  0  0  0  0  0  0  0
   13.8019   -1.2043    0.0000 H   0  0  0  0  0  0  0  0  0  0  0  0
    7.1909   -4.6908    0.0000 H   0  0  0  0  0  0  0  0  0  0  0  0
    9.5624   -5.2522    0.0000 H   0  0  0  0  0  0  0  0  0  0  0  0
   10.4293   -5.3841    0.0000 H   0  0  0  0  0  0  0  0  0  0  0  0
   10.5611   -4.5172    0.0000 H   0  0  0  0  0  0  0  0  0  0  0  0
    7.6836    5.7728    0.0000 H   0  0  0  0  0  0  0  0  0  0  0  0
    7.6882   -6.2326    0.0000 H   0  0  0  0  0  0  0  0  0  0  0  0
    8.7103   -5.9030    0.0000 H   0  0  0  0  0  0  0  0  0  0  0  0
    2.0000    0.1728    0.0000 H   0  0  0  0  0  0  0  0  0  0  0  0
  1 37  1  0  0  0  0
  1 91  1  0  0  0  0
  2 37  2  0  0  0  0
  3 38  1  0  0  0  0
  3 94  1  0  0  0  0
  4 38  2  0  0  0  0
  5  9  1  0  0  0  0
  5 11  1  0  0  0  0
  5 51  1  0  0  0  0
  6 13  1  0  0  0  0
  6 19  1  0  0  0  0
  6 58  1  0  0  0  0
  7 18  1  0  0  0  0
  7 23  1  0  0  0  0
  7 63  1  0  0  0  0
  8 31  2  0  0  0  0
  8 33  1  0  0  0  0
  9 10  1  0  0  0  0
  9 14  1  0  0  0  0
  9 43  1  0  0  0  0
 10 12  1  0  0  0  0
 10 21  1  0  0  0  0
 10 44  1  0  0  0  0
 11 12  1  0  0  0  0
 11 16  1  0  0  0  0
 11 45  1  0  0  0  0
 12 24  1  0  0  0  0
 12 46  1  0  0  0  0
 13 14  1  0  0  0  0
 13 15  1  0  0  0  0
 13 47  1  0  0  0  0
 14 48  1  0  0  0  0
 14 49  1  0  0  0  0
 15 17  1  0  0  0  0
 15 25  1  0  0  0  0
 15 50  1  0  0  0  0
 16 18  1  0  0  0  0
 16 52  1  0  0  0  0
 16 53  1  0  0  0  0
 17 19  1  0  0  0  0
 17 27  1  0  0  0  0
 17 54  1  0  0  0  0
 18 20  1  0  0  0  0
 18 55  1  0  0  0  0
 19 26  1  0  0  0  0
 19 56  1  0  0  0  0
 20 22  1  0  0  0  0
 20 29  1  0  0  0  0
 20 57  1  0  0  0  0
 21 30  1  0  0  0  0
 21 59  1  0  0  0  0
 21 60  1  0  0  0  0
 22 23  1  0  0  0  0
 22 34  1  0  0  0  0
 22 61  1  0  0  0  0
 23 28  1  0  0  0  0
 23 62  1  0  0  0  0
 24 64  1  0  0  0  0
 24 65  1  0  0  0  0
 24 66  1  0  0  0  0
 25 32  1  0  0  0  0
 25 67  1  0  0  0  0
 25 68  1  0  0  0  0
 26 31  1  0  0  0  0
 26 69  1  0  0  0  0
 26 70  1  0  0  0  0
 27 71  1  0  0  0  0
 27 72  1  0  0  0  0
 27 73  1  0  0  0  0
 28 33  1  0  0  0  0
 28 74  1  0  0  0  0
 28 75  1  0  0  0  0
 29 76  1  0  0  0  0
 29 77  1  0  0  0  0
 29 78  1  0  0  0  0
 30 37  1  0  0  0  0
 30 79  1  0  0  0  0
 30 80  1  0  0  0  0
 31 35  1  0  0  0  0
 32 38  1  0  0  0  0
 32 81  1  0  0  0  0
 32 82  1  0  0  0  0
 33 36  2  0  0  0  0
 34 39  2  0  0  0  0
 34 83  1  0  0  0  0
 35 36  1  0  0  0  0
 35 40  1  0  0  0  0
 35 84  1  0  0  0  0
 36 41  1  0  0  0  0
 39 85  1  0  0  0  0
 39 86  1  0  0  0  0
 40 42  2  0  0  0  0
 40 87  1  0  0  0  0
 41 88  1  0  0  0  0
 41 89  1  0  0  0  0
 41 90  1  0  0  0  0
 42 92  1  0  0  0  0
 42 93  1  0  0  0  0
M  END
> <PUBCHEM_COMPOUND_CID>
1039

> <PUBCHEM_COMPOUND_CANONICALIZED>
1

> <PUBCHEM_CACTVS_COMPLEXITY>
1130

> <PUBCHEM_CACTVS_HBOND_ACCEPTOR>
8

> <PUBCHEM_CACTVS_HBOND_DONOR>
5

> <PUBCHEM_CACTVS_ROTATABLE_BOND>
8

> <PUBCHEM_CACTVS_SUBSKEYS>
AAADcfB/uAAAAAAAAAAAAAAAAAAAAWLFiAAAAAAAAAAAAAAAAAAAHgAQCAAADSjBgAQCCALAAgCoAyTyTAAAAAAgAAAICIE4AAgAABIAwQAEQAAEkACIAAOY2fOegAAAAAAAAAAAAAAAAAAAAAAAAAAAAA==

> <PUBCHEM_IUPAC_OPENEYE_NAME>
3-[18-(2-carboxyethyl)-3,7,12,17-tetramethyl-8,13-divinyl-1,2,3,4,5,6,7,8,9,10,13,15,16,17,18,19,20,21,22,24-icosahydroporphyrin-2-yl]propanoic acid

> <PUBCHEM_IUPAC_CAS_NAME>
3-[18-(2-carboxyethyl)-8,13-bis(ethenyl)-3,7,12,17-tetramethyl-1,2,3,4,5,6,7,8,9,10,13,15,16,17,18,19,20,21,22,24-eicosahydroporphyrin-2-yl]propanoic acid

> <PUBCHEM_IUPAC_NAME_MARKUP>
3-[18-(2-carboxyethyl)-8,13-bis(ethenyl)-3,7,12,17-tetramethyl-1,2,3,4,5,6,7,8,9,10,13,15,16,17,18,19,20,21,22,24-icosahydroporphyrin-2-yl]propanoic acid

> <PUBCHEM_IUPAC_NAME>
3-[18-(2-carboxyethyl)-8,13-bis(ethenyl)-3,7,12,17-tetramethyl-1,2,3,4,5,6,7,8,9,10,13,15,16,17,18,19,20,21,22,24-icosahydroporphyrin-2-yl]propanoic acid

> <PUBCHEM_IUPAC_SYSTEMATIC_NAME>
3-[8,13-bis(ethenyl)-18-(3-hydroxy-3-oxopropyl)-3,7,12,17-tetramethyl-1,2,3,4,5,6,7,8,9,10,13,15,16,17,18,19,20,21,22,24-icosahydroporphyrin-2-yl]propanoic acid

> <PUBCHEM_IUPAC_TRADITIONAL_NAME>
3-[18-(2-carboxyethyl)-3,7,12,17-tetramethyl-8,13-divinyl-1,2,3,4,5,6,7,8,9,10,13,15,16,17,18,19,20,21,22,24-eicosahydroporphin-2-yl]propionic acid

> <PUBCHEM_IUPAC_INCHI>
InChI=1S/C34H52N4O4/c1-7-21-17(3)25-13-26-19(5)23(9-11-33(39)40)31(37-26)16-32-24(10-12-34(41)42)20(6)28(38-32)15-30-22(8-2)18(4)27(36-30)14-29(21)35-25/h7-8,17,19-26,28-29,31-32,35,37-38H,1-2,9-16H2,3-6H3,(H,39,40)(H,41,42)

> <PUBCHEM_IUPAC_INCHIKEY>
PDLRSACZRWHPNY-UHFFFAOYSA-N

> <PUBCHEM_XLOGP3_AA>
-1

> <PUBCHEM_EXACT_MASS>
580.39885615

> <PUBCHEM_MOLECULAR_FORMULA>
C34H52N4O4

> <PUBCHEM_MOLECULAR_WEIGHT>
580.8

> <PUBCHEM_SMILES>
CC1C2CC3C(C(C(N3)CC4=C(C(C(=N4)CC5C(C(C(N5)CC(C1CCC(=O)O)N2)CCC(=O)O)C)C=C)C)C=C)C

> <PUBCHEM_CONNECTIVITY_SMILES>
CC1C2CC3C(C(C(N3)CC4=C(C(C(=N4)CC5C(C(C(N5)CC(C1CCC(=O)O)N2)CCC(=O)O)C)C=C)C)C=C)C

> <PUBCHEM_CACTVS_TPSA>
123

> <PUBCHEM_MONOISOTOPIC_WEIGHT>
580.39885615

> <PUBCHEM_TOTAL_CHARGE>
0

> <PUBCHEM_HEAVY_ATOM_COUNT>
42

> <PUBCHEM_ATOM_DEF_STEREO_COUNT>
0

> <PUBCHEM_ATOM_UDEF_STEREO_COUNT>
13

> <PUBCHEM_BOND_DEF_STEREO_COUNT>
0

> <PUBCHEM_BOND_UDEF_STEREO_COUNT>
0

> <PUBCHEM_ISOTOPIC_ATOM_COUNT>
0

> <PUBCHEM_COMPONENT_COUNT>
1

> <PUBCHEM_CACTVS_TAUTO_COUNT>
-1

> <PUBCHEM_COORDINATE_TYPE>
1
5
255

> <PUBCHEM_BONDANNOTATIONS>
10  21  3
11  16  3
12  24  3
13  14  3
15  25  3
18  16  3
17  27  3
19  26  3
20  29  3
22  34  3
23  28  3
35  40  3
9  14  3

$$$$
