526
  -OEChem-08152602542D

120124  0     1  0  0  0  0  0999 V2000
   11.1969   -1.5880    0.0000 O   0  0  0  0  0  0  0  0  0  0  0  0
   13.3546   -1.2022    0.0000 O   0  0  0  0  0  0  0  0  0  0  0  0
   11.7483   -1.8503    0.0000 O   0  0  0  0  0  0  0  0  0  0  0  0
   13.1379    3.0833    0.0000 O   0  0  0  0  0  0  0  0  0  0  0  0
    9.3146   -4.9272    0.0000 O   0  0  0  0  0  0  0  0  0  0  0  0
   11.9228    4.3176    0.0000 O   0  0  0  0  0  0  0  0  0  0  0  0
    7.7280   -4.2325    0.0000 O   0  0  0  0  0  0  0  0  0  0  0  0
    6.1468   -5.5650    0.0000 O   0  0  0  0  0  0  0  0  0  0  0  0
    7.8694   -5.3840    0.0000 O   0  0  0  0  0  0  0  0  0  0  0  0
    9.3261    5.8636    0.0000 O   0  0  0  0  0  0  0  0  0  0  0  0
   10.2144    4.3768    0.0000 O   0  0  0  0  0  0  0  0  0  0  0  0
    2.5718    1.7705    0.0000 O   0  0  0  0  0  0  0  0  0  0  0  0
    3.2413    0.1731    0.0000 O   0  0  0  0  0  0  0  0  0  0  0  0
    4.3501    4.7406    0.0000 O   0  0  0  0  0  0  0  0  0  0  0  0
    5.7451    5.7672    0.0000 O   0  0  0  0  0  0  0  0  0  0  0  0
    3.7469   -3.2231    0.0000 O   0  0  0  0  0  0  0  0  0  0  0  0
    2.6982   -1.8446    0.0000 O   0  0  0  0  0  0  0  0  0  0  0  0
    9.5044    0.4590    0.0000 N   0  0  0  0  0  0  0  0  0  0  0  0
    8.0430   -0.8737    0.0000 N   0  0  0  0  0  0  0  0  0  0  0  0
    8.0104    1.7918    0.0000 N   0  0  0  0  0  0  0  0  0  0  0  0
    6.5798    0.4590    0.0000 N   0  0  0  0  0  0  0  0  0  0  0  0
   11.0000    0.0045    0.0000 C   0  0  3  0  0  0  0  0  0  0  0  0
   10.0893   -0.2563    0.0000 C   0  0  3  0  0  0  0  0  0  0  0  0
   11.0000    0.9787    0.0000 C   0  0  3  0  0  0  0  0  0  0  0  0
   10.0567    1.2394    0.0000 C   0  0  0  0  0  0  0  0  0  0  0  0
    8.8234   -1.4587    0.0000 C   0  0  0  0  0  0  0  0  0  0  0  0
   11.9902   -0.1352    0.0000 C   0  0  0  0  0  0  0  0  0  0  0  0
   11.4996   -0.8618    0.0000 C   0  0  0  0  0  0  0  0  0  0  0  0
   11.7127    1.6802    0.0000 C   0  0  0  0  0  0  0  0  0  0  0  0
    7.5558   -2.4004    0.0000 C   0  0  3  0  0  0  0  0  0  0  0  0
    8.5302   -2.4004    0.0000 C   0  0  0  0  0  0  0  0  0  0  0  0
   10.2587   -1.2418    0.0000 C   0  0  0  0  0  0  0  0  0  0  0  0
    7.2625   -1.4913    0.0000 C   0  0  0  0  0  0  0  0  0  0  0  0
    9.7651    2.1485    0.0000 C   0  0  0  0  0  0  0  0  0  0  0  0
    7.6603   -3.3950    0.0000 C   0  0  0  0  0  0  0  0  0  0  0  0
   11.4614    2.6481    0.0000 C   0  0  0  0  0  0  0  0  0  0  0  0
    9.1229   -3.2058    0.0000 C   0  0  0  0  0  0  0  0  0  0  0  0
    8.8234    2.4418    0.0000 C   0  0  0  0  0  0  0  0  0  0  0  0
   12.3644   -1.0626    0.0000 C   0  0  0  0  0  0  0  0  0  0  0  0
    6.6423   -2.8072    0.0000 C   0  0  0  0  0  0  0  0  0  0  0  0
    8.4976    3.3510    0.0000 C   0  0  3  0  0  0  0  0  0  0  0  0
    6.3208   -1.1980    0.0000 C   0  0  0  0  0  0  0  0  0  0  0  0
    9.4899   -1.8813    0.0000 C   0  0  0  0  0  0  0  0  0  0  0  0
    7.5232    3.3510    0.0000 C   0  0  0  0  0  0  0  0  0  0  0  0
    6.0276    1.2068    0.0000 C   0  0  3  0  0  0  0  0  0  0  0  0
    6.0276   -0.2889    0.0000 C   0  0  0  0  0  0  0  0  0  0  0  0
    7.2299    2.4092    0.0000 C   0  0  0  0  0  0  0  0  0  0  0  0
    6.8513   -3.9827    0.0000 C   0  0  0  0  0  0  0  0  0  0  0  0
    6.2883    2.1485    0.0000 C   0  0  0  0  0  0  0  0  0  0  0  0
    8.4826    4.3508    0.0000 C   0  0  0  0  0  0  0  0  0  0  0  0
    5.0858    0.9461    0.0000 C   0  0  0  0  0  0  0  0  0  0  0  0
    5.0858   -0.0282    0.0000 C   0  0  0  0  0  0  0  0  0  0  0  0
    9.4439    3.6742    0.0000 C   0  0  0  0  0  0  0  0  0  0  0  0
   12.1741    3.3497    0.0000 C   0  0  0  0  0  0  0  0  0  0  0  0
    8.7218   -4.1218    0.0000 C   0  0  0  0  0  0  0  0  0  0  0  0
    6.9305    4.1564    0.0000 C   0  0  0  0  0  0  0  0  0  0  0  0
    5.3205    1.9139    0.0000 C   0  0  0  0  0  0  0  0  0  0  0  0
    4.2900   -0.6336    0.0000 C   0  0  0  0  0  0  0  0  0  0  0  0
    4.2900    1.5516    0.0000 C   0  0  0  0  0  0  0  0  0  0  0  0
    6.9558   -4.9772    0.0000 C   0  0  0  0  0  0  0  0  0  0  0  0
    5.9366    4.0458    0.0000 C   0  0  0  0  0  0  0  0  0  0  0  0
    9.3410    4.8637    0.0000 C   0  0  0  0  0  0  0  0  0  0  0  0
    4.4164   -1.6256    0.0000 C   0  0  0  0  0  0  0  0  0  0  0  0
    3.3677    1.1651    0.0000 C   0  0  0  0  0  0  0  0  0  0  0  0
    5.3439    4.8512    0.0000 C   0  0  0  0  0  0  0  0  0  0  0  0
    3.6205   -2.2311    0.0000 C   0  0  0  0  0  0  0  0  0  0  0  0
   11.5719    0.7392    0.0000 H   0  0  0  0  0  0  0  0  0  0  0  0
    8.8848    0.4374    0.0000 H   0  0  0  0  0  0  0  0  0  0  0  0
   12.5967   -0.0066    0.0000 H   0  0  0  0  0  0  0  0  0  0  0  0
   11.9689    0.4844    0.0000 H   0  0  0  0  0  0  0  0  0  0  0  0
   10.9625   -1.1716    0.0000 H   0  0  0  0  0  0  0  0  0  0  0  0
   11.8094   -1.3989    0.0000 H   0  0  0  0  0  0  0  0  0  0  0  0
   12.0367   -0.5521    0.0000 H   0  0  0  0  0  0  0  0  0  0  0  0
   12.0643    1.1696    0.0000 H   0  0  0  0  0  0  0  0  0  0  0  0
   12.2766    1.9378    0.0000 H   0  0  0  0  0  0  0  0  0  0  0  0
   10.2016    2.5888    0.0000 H   0  0  0  0  0  0  0  0  0  0  0  0
    7.9321   -3.9522    0.0000 H   0  0  0  0  0  0  0  0  0  0  0  0
    8.2563   -3.2241    0.0000 H   0  0  0  0  0  0  0  0  0  0  0  0
   11.1098    3.1588    0.0000 H   0  0  0  0  0  0  0  0  0  0  0  0
   10.8975    2.3905    0.0000 H   0  0  0  0  0  0  0  0  0  0  0  0
    9.6391   -3.5493    0.0000 H   0  0  0  0  0  0  0  0  0  0  0  0
    9.5508   -2.7572    0.0000 H   0  0  0  0  0  0  0  0  0  0  0  0
    6.3901   -2.2407    0.0000 H   0  0  0  0  0  0  0  0  0  0  0  0
    6.0759   -3.0593    0.0000 H   0  0  0  0  0  0  0  0  0  0  0  0
    6.8944   -3.3736    0.0000 H   0  0  0  0  0  0  0  0  0  0  0  0
    5.7044   -1.2644    0.0000 H   0  0  0  0  0  0  0  0  0  0  0  0
    6.2606   -1.8150    0.0000 H   0  0  0  0  0  0  0  0  0  0  0  0
    9.0934   -1.4046    0.0000 H   0  0  0  0  0  0  0  0  0  0  0  0
    9.0133   -2.2778    0.0000 H   0  0  0  0  0  0  0  0  0  0  0  0
    9.8864   -2.3579    0.0000 H   0  0  0  0  0  0  0  0  0  0  0  0
    6.5795   -3.4255    0.0000 H   0  0  0  0  0  0  0  0  0  0  0  0
    6.2553   -4.1536    0.0000 H   0  0  0  0  0  0  0  0  0  0  0  0
    6.2325    2.7660    0.0000 H   0  0  0  0  0  0  0  0  0  0  0  0
    5.6708    2.2042    0.0000 H   0  0  0  0  0  0  0  0  0  0  0  0
    8.2618    4.9302    0.0000 H   0  0  0  0  0  0  0  0  0  0  0  0
    7.8737    4.2341    0.0000 H   0  0  0  0  0  0  0  0  0  0  0  0
    9.6443    3.0874    0.0000 H   0  0  0  0  0  0  0  0  0  0  0  0
   10.0306    3.8746    0.0000 H   0  0  0  0  0  0  0  0  0  0  0  0
    9.2435    4.2609    0.0000 H   0  0  0  0  0  0  0  0  0  0  0  0
    7.4861    4.4316    0.0000 H   0  0  0  0  0  0  0  0  0  0  0  0
    6.7560    4.7513    0.0000 H   0  0  0  0  0  0  0  0  0  0  0  0
    5.7589    2.3523    0.0000 H   0  0  0  0  0  0  0  0  0  0  0  0
    4.8821    2.3523    0.0000 H   0  0  0  0  0  0  0  0  0  0  0  0
    4.8820    1.4755    0.0000 H   0  0  0  0  0  0  0  0  0  0  0  0
   13.7365   -0.7138    0.0000 H   0  0  0  0  0  0  0  0  0  0  0  0
    4.0060   -0.0825    0.0000 H   0  0  0  0  0  0  0  0  0  0  0  0
    3.6979   -0.8176    0.0000 H   0  0  0  0  0  0  0  0  0  0  0  0
    4.7454    1.9723    0.0000 H   0  0  0  0  0  0  0  0  0  0  0  0
    3.9547    2.0731    0.0000 H   0  0  0  0  0  0  0  0  0  0  0  0
    5.3811    3.7706    0.0000 H   0  0  0  0  0  0  0  0  0  0  0  0
    6.1112    3.4508    0.0000 H   0  0  0  0  0  0  0  0  0  0  0  0
    4.7004   -2.1767    0.0000 H   0  0  0  0  0  0  0  0  0  0  0  0
    5.0085   -1.4416    0.0000 H   0  0  0  0  0  0  0  0  0  0  0  0
   13.5798    3.5182    0.0000 H   0  0  0  0  0  0  0  0  0  0  0  0
    9.9308   -4.8586    0.0000 H   0  0  0  0  0  0  0  0  0  0  0  0
    6.2116   -6.1816    0.0000 H   0  0  0  0  0  0  0  0  0  0  0  0
    9.8583    6.1816    0.0000 H   0  0  0  0  0  0  0  0  0  0  0  0
    2.0000    1.5309    0.0000 H   0  0  0  0  0  0  0  0  0  0  0  0
    3.9826    5.2399    0.0000 H   0  0  0  0  0  0  0  0  0  0  0  0
    3.2535   -3.5984    0.0000 H   0  0  0  0  0  0  0  0  0  0  0  0
  1 32  2  0  0  0  0
  2 39  1  0  0  0  0
  2105  1  0  0  0  0
  3 39  2  0  0  0  0
  4 54  1  0  0  0  0
  4114  1  0  0  0  0
  5 55  1  0  0  0  0
  5115  1  0  0  0  0
  6 54  2  0  0  0  0
  7 55  2  0  0  0  0
  8 60  1  0  0  0  0
  8116  1  0  0  0  0
  9 60  2  0  0  0  0
 10 62  1  0  0  0  0
 10117  1  0  0  0  0
 11 62  2  0  0  0  0
 12 64  1  0  0  0  0
 12118  1  0  0  0  0
 13 64  2  0  0  0  0
 14 65  1  0  0  0  0
 14119  1  0  0  0  0
 15 65  2  0  0  0  0
 16 66  1  0  0  0  0
 16120  1  0  0  0  0
 17 66  2  0  0  0  0
 18 23  1  0  0  0  0
 18 25  1  0  0  0  0
 18 68  1  0  0  0  0
 19 26  1  0  0  0  0
 19 33  2  0  0  0  0
 20 38  2  0  0  0  0
 20 47  1  0  0  0  0
 21 45  1  0  0  0  0
 21 46  2  0  0  0  0
 22 23  1  0  0  0  0
 22 24  1  0  0  0  0
 22 27  1  0  0  0  0
 22 28  1  0  0  0  0
 23 26  1  0  0  0  0
 23 32  1  0  0  0  0
 24 25  1  0  0  0  0
 24 29  1  0  0  0  0
 24 67  1  0  0  0  0
 25 34  2  3  0  0  0
 26 31  2  0  0  0  0
 27 39  1  0  0  0  0
 27 69  1  0  0  0  0
 27 70  1  0  0  0  0
 28 71  1  0  0  0  0
 28 72  1  0  0  0  0
 28 73  1  0  0  0  0
 29 36  1  0  0  0  0
 29 74  1  0  0  0  0
 29 75  1  0  0  0  0
 30 31  1  0  0  0  0
 30 33  1  0  0  0  0
 30 35  1  0  0  0  0
 30 40  1  0  0  0  0
 31 37  1  0  0  0  0
 32 43  1  0  0  0  0
 33 42  1  0  0  0  0
 34 38  1  0  0  0  0
 34 76  1  0  0  0  0
 35 48  1  0  0  0  0
 35 77  1  0  0  0  0
 35 78  1  0  0  0  0
 36 54  1  0  0  0  0
 36 79  1  0  0  0  0
 36 80  1  0  0  0  0
 37 55  1  0  0  0  0
 37 81  1  0  0  0  0
 37 82  1  0  0  0  0
 38 41  1  0  0  0  0
 40 83  1  0  0  0  0
 40 84  1  0  0  0  0
 40 85  1  0  0  0  0
 41 44  1  0  0  0  0
 41 50  1  0  0  0  0
 41 53  1  0  0  0  0
 42 46  1  0  0  0  0
 42 86  1  0  0  0  0
 42 87  1  0  0  0  0
 43 88  1  0  0  0  0
 43 89  1  0  0  0  0
 43 90  1  0  0  0  0
 44 47  2  0  0  0  0
 44 56  1  0  0  0  0
 45 49  1  0  0  0  0
 45 51  1  0  0  0  0
 45 57  1  0  0  0  0
 46 52  1  0  0  0  0
 47 49  1  0  0  0  0
 48 60  1  0  0  0  0
 48 91  1  0  0  0  0
 48 92  1  0  0  0  0
 49 93  1  0  0  0  0
 49 94  1  0  0  0  0
 50 62  1  0  0  0  0
 50 95  1  0  0  0  0
 50 96  1  0  0  0  0
 51 52  2  0  0  0  0
 51 59  1  0  0  0  0
 52 58  1  0  0  0  0
 53 97  1  0  0  0  0
 53 98  1  0  0  0  0
 53 99  1  0  0  0  0
 56 61  1  0  0  0  0
 56100  1  0  0  0  0
 56101  1  0  0  0  0
 57102  1  0  0  0  0
 57103  1  0  0  0  0
 57104  1  0  0  0  0
 58 63  1  0  0  0  0
 58106  1  0  0  0  0
 58107  1  0  0  0  0
 59 64  1  0  0  0  0
 59108  1  0  0  0  0
 59109  1  0  0  0  0
 61 65  1  0  0  0  0
 61110  1  0  0  0  0
 61111  1  0  0  0  0
 63 66  1  0  0  0  0
 63112  1  0  0  0  0
 63113  1  0  0  0  0
M  END
> <PUBCHEM_COMPOUND_CID>
526

> <PUBCHEM_COMPOUND_CANONICALIZED>
1

> <PUBCHEM_CACTVS_COMPLEXITY>
2460

> <PUBCHEM_CACTVS_HBOND_ACCEPTOR>
21

> <PUBCHEM_CACTVS_HBOND_DONOR>
9

> <PUBCHEM_CACTVS_ROTATABLE_BOND>
21

> <PUBCHEM_CACTVS_SUBSKEYS>
AAADcfB/vgAAAAAAAAAAAAAAAAAAAWIECAAAAAAAAAAAAAAAAAAAHgAQCAAAD4yBgAACCALAAgCoA6TyTACAAAAgAgAACAGwABgAQBoAwSAUQAAE0ACIAAO83/KvgAAAAAAAAAAAAAAAAAAAAAAAAAAAAA==

> <PUBCHEM_IUPAC_OPENEYE_NAME>
3-[1-acetyl-8,13,17-tris(2-carboxyethyl)-2,7,12,18-tetrakis(carboxymethyl)-2,7,11,17-tetramethyl-3,10,15,21-tetrahydrocorrin-3-yl]propanoic acid

> <PUBCHEM_IUPAC_CAS_NAME>
3-[1-acetyl-8,13,17-tris(2-carboxyethyl)-2,7,12,18-tetrakis(carboxymethyl)-2,7,11,17-tetramethyl-3,10,15,21-tetrahydrocorrin-3-yl]propanoic acid

> <PUBCHEM_IUPAC_NAME_MARKUP>
3-[1-acetyl-8,13,17-tris(2-carboxyethyl)-2,7,12,18-tetrakis(carboxymethyl)-2,7,11,17-tetramethyl-3,10,15,21-tetrahydrocorrin-3-yl]propanoic acid

> <PUBCHEM_IUPAC_NAME>
3-[1-acetyl-8,13,17-tris(2-carboxyethyl)-2,7,12,18-tetrakis(carboxymethyl)-2,7,11,17-tetramethyl-3,10,15,21-tetrahydrocorrin-3-yl]propanoic acid

> <PUBCHEM_IUPAC_SYSTEMATIC_NAME>
3-[1-ethanoyl-2,7,12,18-tetrakis(2-hydroxy-2-oxoethyl)-8,13,17-tris(3-hydroxy-3-oxopropyl)-2,7,11,17-tetramethyl-3,10,15,21-tetrahydrocorrin-3-yl]propanoic acid

> <PUBCHEM_IUPAC_TRADITIONAL_NAME>
3-[1-acetyl-8,13,17-tris(2-carboxyethyl)-2,7,12,18-tetrakis(carboxymethyl)-2,7,11,17-tetramethyl-3,10,15,21-tetrahydrocorrin-3-yl]propionic acid

> <PUBCHEM_IUPAC_INCHI>
InChI=1S/C45H54N4O17/c1-21(50)45-40-26(15-37(61)62)41(2,13-12-35(57)58)30(47-40)16-27-22(6-9-32(51)52)25(14-36(59)60)44(5,48-27)18-29-23(7-10-33(53)54)42(3,19-38(63)64)31(46-29)17-28(49-45)24(8-11-34(55)56)43(45,4)20-39(65)66/h17,24,49H,6-16,18-20H2,1-5H3,(H,51,52)(H,53,54)(H,55,56)(H,57,58)(H,59,60)(H,61,62)(H,63,64)(H,65,66)

> <PUBCHEM_IUPAC_INCHIKEY>
OUPXZNRNMLYOGK-UHFFFAOYSA-N

> <PUBCHEM_XLOGP3_AA>
-2.5

> <PUBCHEM_EXACT_MASS>
922.34839627

> <PUBCHEM_MOLECULAR_FORMULA>
C45H54N4O17

> <PUBCHEM_MOLECULAR_WEIGHT>
922.9

> <PUBCHEM_SMILES>
CC(=O)C12C3=C(C(C(=N3)CC4=NC(CC5=C(C(C(=N5)C=C(N1)C(C2(C)CC(=O)O)CCC(=O)O)(C)CC(=O)O)CCC(=O)O)(C(=C4CCC(=O)O)CC(=O)O)C)(C)CCC(=O)O)CC(=O)O

> <PUBCHEM_CONNECTIVITY_SMILES>
CC(=O)C12C3=C(C(C(=N3)CC4=NC(CC5=C(C(C(=N5)C=C(N1)C(C2(C)CC(=O)O)CCC(=O)O)(C)CC(=O)O)CCC(=O)O)(C(=C4CCC(=O)O)CC(=O)O)C)(C)CCC(=O)O)CC(=O)O

> <PUBCHEM_CACTVS_TPSA>
365

> <PUBCHEM_MONOISOTOPIC_WEIGHT>
922.34839627

> <PUBCHEM_TOTAL_CHARGE>
0

> <PUBCHEM_HEAVY_ATOM_COUNT>
66

> <PUBCHEM_ATOM_DEF_STEREO_COUNT>
0

> <PUBCHEM_ATOM_UDEF_STEREO_COUNT>
6

> <PUBCHEM_BOND_DEF_STEREO_COUNT>
0

> <PUBCHEM_BOND_UDEF_STEREO_COUNT>
1

> <PUBCHEM_ISOTOPIC_ATOM_COUNT>
0

> <PUBCHEM_COMPONENT_COUNT>
1

> <PUBCHEM_CACTVS_TAUTO_COUNT>
-1

> <PUBCHEM_COORDINATE_TYPE>
1
5
255

> <PUBCHEM_BONDANNOTATIONS>
22  28  3
23  32  3
24  29  3
25  34  1
30  40  3
41  53  3
45  57  3

$$$$
