319
  -OEChem-08152602382D

142146  0     1  0  0  0  0  0999 V2000
   12.5923   -0.6880    0.0000 O   0  0  0  0  0  0  0  0  0  0  0  0
   11.3618   -1.0168    0.0000 O   0  0  0  0  0  0  0  0  0  0  0  0
    8.7133   -4.2217    0.0000 O   0  0  0  0  0  0  0  0  0  0  0  0
   12.7667    5.4799    0.0000 O   0  0  0  0  0  0  0  0  0  0  0  0
   11.0584    5.5391    0.0000 O   0  0  0  0  0  0  0  0  0  0  0  0
    3.5421   -0.6822    0.0000 O   0  0  0  0  0  0  0  0  0  0  0  0
    6.5890    6.9295    0.0000 O   0  0  0  0  0  0  0  0  0  0  0  0
    6.3907   -6.9795    0.0000 O   0  0  0  0  0  0  0  0  0  0  0  0
    8.8869    0.2886    0.0000 N   0  0  0  0  0  0  0  0  0  0  0  0
   10.3483    1.6213    0.0000 N   0  0  0  0  0  0  0  0  0  0  0  0
    7.4238    1.6213    0.0000 N   0  0  0  0  0  0  0  0  0  0  0  0
    8.8543    2.9541    0.0000 N   0  0  0  0  0  0  0  0  0  0  0  0
   14.1985   -0.0399    0.0000 N   0  0  0  0  0  0  0  0  0  0  0  0
   11.5535   -2.7382    0.0000 N   0  0  0  0  0  0  0  0  0  0  0  0
    6.9907   -4.4027    0.0000 N   0  0  0  0  0  0  0  0  0  0  0  0
   13.9818    4.2456    0.0000 N   0  0  0  0  0  0  0  0  0  0  0  0
   10.1700    7.0260    0.0000 N   0  0  0  0  0  0  0  0  0  0  0  0
    2.4934    0.6962    0.0000 N   0  0  0  0  0  0  0  0  0  0  0  0
    5.1940    5.9029    0.0000 N   0  0  0  0  0  0  0  0  0  0  0  0
   10.9333    0.9061    0.0000 C   0  0  3  0  0  0  0  0  0  0  0  0
   11.8439    1.1668    0.0000 C   0  0  3  0  0  0  0  0  0  0  0  0
    9.6673   -0.2964    0.0000 C   0  0  3  0  0  0  0  0  0  0  0  0
    9.3741   -1.2381    0.0000 C   0  0  3  0  0  0  0  0  0  0  0  0
    8.3997   -1.2381    0.0000 C   0  0  3  0  0  0  0  0  0  0  0  0
   11.8439    2.1410    0.0000 C   0  0  3  0  0  0  0  0  0  0  0  0
    8.1064   -0.3290    0.0000 C   0  0  0  0  0  0  0  0  0  0  0  0
    7.1647   -0.0357    0.0000 C   0  0  3  0  0  0  0  0  0  0  0  0
   10.9007    2.4017    0.0000 C   0  0  0  0  0  0  0  0  0  0  0  0
   12.8341    1.0271    0.0000 C   0  0  0  0  0  0  0  0  0  0  0  0
   11.4295    0.0379    0.0000 C   0  0  0  0  0  0  0  0  0  0  0  0
    6.8715    0.8735    0.0000 C   0  0  3  0  0  0  0  0  0  0  0  0
    8.5042   -2.2326    0.0000 C   0  0  0  0  0  0  0  0  0  0  0  0
    9.9668   -2.0435    0.0000 C   0  0  0  0  0  0  0  0  0  0  0  0
   12.0171    0.1819    0.0000 C   0  0  0  0  0  0  0  0  0  0  0  0
    5.9298    1.1342    0.0000 C   0  0  3  0  0  0  0  0  0  0  0  0
    7.4862   -1.6448    0.0000 C   0  0  0  0  0  0  0  0  0  0  0  0
   12.5566    2.8425    0.0000 C   0  0  0  0  0  0  0  0  0  0  0  0
    5.9298    2.1084    0.0000 C   0  0  0  0  0  0  0  0  0  0  0  0
   10.6090    3.3108    0.0000 C   0  0  0  0  0  0  0  0  0  0  0  0
    6.8715    2.3691    0.0000 C   0  0  0  0  0  0  0  0  0  0  0  0
    6.4940   -0.7774    0.0000 C   0  0  0  0  0  0  0  0  0  0  0  0
    9.3415    4.5133    0.0000 C   0  0  3  0  0  0  0  0  0  0  0  0
    7.6952   -2.8204    0.0000 C   0  0  0  0  0  0  0  0  0  0  0  0
    5.1339    0.5287    0.0000 C   0  0  0  0  0  0  0  0  0  0  0  0
    9.6673    3.6042    0.0000 C   0  0  0  0  0  0  0  0  0  0  0  0
    8.3671    4.5133    0.0000 C   0  0  3  0  0  0  0  0  0  0  0  0
    7.1322    3.3108    0.0000 C   0  0  0  0  0  0  0  0  0  0  0  0
   12.3053    3.8105    0.0000 C   0  0  0  0  0  0  0  0  0  0  0  0
   13.2083    0.0998    0.0000 C   0  0  0  0  0  0  0  0  0  0  0  0
    8.0738    3.5715    0.0000 C   0  0  0  0  0  0  0  0  0  0  0  0
   10.9607   -1.9328    0.0000 C   0  0  0  0  0  0  0  0  0  0  0  0
    4.9300    2.1304    0.0000 C   0  0  0  0  0  0  0  0  0  0  0  0
    5.6418    3.0660    0.0000 C   0  0  0  0  0  0  0  0  0  0  0  0
   11.3439    3.9890    0.0000 C   0  0  0  0  0  0  0  0  0  0  0  0
    9.3265    5.5132    0.0000 C   0  0  0  0  0  0  0  0  0  0  0  0
    7.7744    5.3187    0.0000 C   0  0  0  0  0  0  0  0  0  0  0  0
    4.2116    0.9152    0.0000 C   0  0  0  0  0  0  0  0  0  0  0  0
   10.2878    4.8365    0.0000 C   0  0  0  0  0  0  0  0  0  0  0  0
    7.7997   -3.8149    0.0000 C   0  0  0  0  0  0  0  0  0  0  0  0
   13.0180    4.5120    0.0000 C   0  0  0  0  0  0  0  0  0  0  0  0
    6.7806    5.2081    0.0000 C   0  0  0  0  0  0  0  0  0  0  0  0
   10.1849    6.0261    0.0000 C   0  0  0  0  0  0  0  0  0  0  0  0
    3.4157    0.3097    0.0000 C   0  0  0  0  0  0  0  0  0  0  0  0
    7.0952   -5.3972    0.0000 C   0  0  0  0  0  0  0  0  0  0  0  0
    6.1878    6.0135    0.0000 C   0  0  0  0  0  0  0  0  0  0  0  0
    6.2862   -5.9850    0.0000 C   0  0  3  0  0  0  0  0  0  0  0  0
    5.3727   -5.5783    0.0000 C   0  0  0  0  0  0  0  0  0  0  0  0
   10.1937   -0.6239    0.0000 H   0  0  0  0  0  0  0  0  0  0  0  0
    9.0943   -1.7914    0.0000 H   0  0  0  0  0  0  0  0  0  0  0  0
   12.4158    1.9015    0.0000 H   0  0  0  0  0  0  0  0  0  0  0  0
    7.6009    0.4049    0.0000 H   0  0  0  0  0  0  0  0  0  0  0  0
   13.4407    1.1557    0.0000 H   0  0  0  0  0  0  0  0  0  0  0  0
   12.8128    1.6468    0.0000 H   0  0  0  0  0  0  0  0  0  0  0  0
   10.8912   -0.2698    0.0000 H   0  0  0  0  0  0  0  0  0  0  0  0
   11.7371   -0.5004    0.0000 H   0  0  0  0  0  0  0  0  0  0  0  0
   11.9677    0.3455    0.0000 H   0  0  0  0  0  0  0  0  0  0  0  0
    6.4424    0.4260    0.0000 H   0  0  0  0  0  0  0  0  0  0  0  0
    8.7760   -2.7899    0.0000 H   0  0  0  0  0  0  0  0  0  0  0  0
    9.1002   -2.0617    0.0000 H   0  0  0  0  0  0  0  0  0  0  0  0
    9.4113   -2.3187    0.0000 H   0  0  0  0  0  0  0  0  0  0  0  0
   10.1414   -2.6384    0.0000 H   0  0  0  0  0  0  0  0  0  0  0  0
   11.4065    0.0745    0.0000 H   0  0  0  0  0  0  0  0  0  0  0  0
   12.1245   -0.4287    0.0000 H   0  0  0  0  0  0  0  0  0  0  0  0
   12.6277    0.2893    0.0000 H   0  0  0  0  0  0  0  0  0  0  0  0
    5.3742    1.4095    0.0000 H   0  0  0  0  0  0  0  0  0  0  0  0
    7.2340   -1.0784    0.0000 H   0  0  0  0  0  0  0  0  0  0  0  0
    6.9198   -1.8970    0.0000 H   0  0  0  0  0  0  0  0  0  0  0  0
    7.7384   -2.2112    0.0000 H   0  0  0  0  0  0  0  0  0  0  0  0
   12.9082    2.3319    0.0000 H   0  0  0  0  0  0  0  0  0  0  0  0
   13.1205    3.1002    0.0000 H   0  0  0  0  0  0  0  0  0  0  0  0
    6.0341   -0.3615    0.0000 H   0  0  0  0  0  0  0  0  0  0  0  0
    6.0781   -1.2372    0.0000 H   0  0  0  0  0  0  0  0  0  0  0  0
    6.9538   -1.1932    0.0000 H   0  0  0  0  0  0  0  0  0  0  0  0
    7.4234   -2.2632    0.0000 H   0  0  0  0  0  0  0  0  0  0  0  0
    7.0992   -2.9913    0.0000 H   0  0  0  0  0  0  0  0  0  0  0  0
    4.7986    0.0072    0.0000 H   0  0  0  0  0  0  0  0  0  0  0  0
    5.5892    0.1079    0.0000 H   0  0  0  0  0  0  0  0  0  0  0  0
    7.7557    4.4107    0.0000 H   0  0  0  0  0  0  0  0  0  0  0  0
    7.0764    3.9283    0.0000 H   0  0  0  0  0  0  0  0  0  0  0  0
    6.5147    3.3666    0.0000 H   0  0  0  0  0  0  0  0  0  0  0  0
   11.9537    4.3211    0.0000 H   0  0  0  0  0  0  0  0  0  0  0  0
   11.7414    3.5529    0.0000 H   0  0  0  0  0  0  0  0  0  0  0  0
    4.9437    2.7503    0.0000 H   0  0  0  0  0  0  0  0  0  0  0  0
    4.3101    2.1441    0.0000 H   0  0  0  0  0  0  0  0  0  0  0  0
    4.9163    1.5106    0.0000 H   0  0  0  0  0  0  0  0  0  0  0  0
    6.2355    3.2446    0.0000 H   0  0  0  0  0  0  0  0  0  0  0  0
    5.4632    3.6598    0.0000 H   0  0  0  0  0  0  0  0  0  0  0  0
    5.0480    2.8875    0.0000 H   0  0  0  0  0  0  0  0  0  0  0  0
   11.7644    3.5334    0.0000 H   0  0  0  0  0  0  0  0  0  0  0  0
   11.7995    4.4095    0.0000 H   0  0  0  0  0  0  0  0  0  0  0  0
   10.9234    4.4446    0.0000 H   0  0  0  0  0  0  0  0  0  0  0  0
    9.1058    6.0925    0.0000 H   0  0  0  0  0  0  0  0  0  0  0  0
    8.7176    5.3964    0.0000 H   0  0  0  0  0  0  0  0  0  0  0  0
    8.3300    5.5939    0.0000 H   0  0  0  0  0  0  0  0  0  0  0  0
    7.5999    5.9136    0.0000 H   0  0  0  0  0  0  0  0  0  0  0  0
    4.5469    1.4367    0.0000 H   0  0  0  0  0  0  0  0  0  0  0  0
    3.7562    1.3360    0.0000 H   0  0  0  0  0  0  0  0  0  0  0  0
   10.4882    4.2498    0.0000 H   0  0  0  0  0  0  0  0  0  0  0  0
   10.8745    5.0369    0.0000 H   0  0  0  0  0  0  0  0  0  0  0  0
   10.0874    5.4232    0.0000 H   0  0  0  0  0  0  0  0  0  0  0  0
   14.5804    0.4485    0.0000 H   0  0  0  0  0  0  0  0  0  0  0  0
   14.4305   -0.6149    0.0000 H   0  0  0  0  0  0  0  0  0  0  0  0
   11.3048   -3.3061    0.0000 H   0  0  0  0  0  0  0  0  0  0  0  0
   12.1697   -2.6696    0.0000 H   0  0  0  0  0  0  0  0  0  0  0  0
    6.2250    4.9329    0.0000 H   0  0  0  0  0  0  0  0  0  0  0  0
    6.9551    4.6132    0.0000 H   0  0  0  0  0  0  0  0  0  0  0  0
    6.4243   -4.1505    0.0000 H   0  0  0  0  0  0  0  0  0  0  0  0
   14.4237    4.6806    0.0000 H   0  0  0  0  0  0  0  0  0  0  0  0
   14.1376    3.6455    0.0000 H   0  0  0  0  0  0  0  0  0  0  0  0
    7.3670   -5.9545    0.0000 H   0  0  0  0  0  0  0  0  0  0  0  0
    7.6912   -5.2263    0.0000 H   0  0  0  0  0  0  0  0  0  0  0  0
   10.7022    7.3440    0.0000 H   0  0  0  0  0  0  0  0  0  0  0  0
    9.6285    7.3279    0.0000 H   0  0  0  0  0  0  0  0  0  0  0  0
    2.0000    0.3208    0.0000 H   0  0  0  0  0  0  0  0  0  0  0  0
    2.4151    1.3113    0.0000 H   0  0  0  0  0  0  0  0  0  0  0  0
    5.7846   -6.3494    0.0000 H   0  0  0  0  0  0  0  0  0  0  0  0
    4.8265    6.4023    0.0000 H   0  0  0  0  0  0  0  0  0  0  0  0
    4.9453    5.3350    0.0000 H   0  0  0  0  0  0  0  0  0  0  0  0
    5.6248   -5.0119    0.0000 H   0  0  0  0  0  0  0  0  0  0  0  0
    4.8063   -5.3261    0.0000 H   0  0  0  0  0  0  0  0  0  0  0  0
    5.1205   -6.1447    0.0000 H   0  0  0  0  0  0  0  0  0  0  0  0
    5.8891   -7.3440    0.0000 H   0  0  0  0  0  0  0  0  0  0  0  0
  1 49  2  0  0  0  0
  2 51  2  0  0  0  0
  3 59  2  0  0  0  0
  4 60  2  0  0  0  0
  5 62  2  0  0  0  0
  6 63  2  0  0  0  0
  7 65  2  0  0  0  0
  8 66  1  0  0  0  0
  8142  1  0  0  0  0
  9 22  1  0  0  0  0
  9 26  2  0  0  0  0
 10 20  1  0  0  0  0
 10 28  2  0  0  0  0
 11 31  1  0  0  0  0
 11 40  2  0  0  0  0
 12 45  1  0  0  0  0
 12 50  2  0  0  0  0
 13 49  1  0  0  0  0
 13121  1  0  0  0  0
 13122  1  0  0  0  0
 14 51  1  0  0  0  0
 14123  1  0  0  0  0
 14124  1  0  0  0  0
 15 59  1  0  0  0  0
 15 64  1  0  0  0  0
 15127  1  0  0  0  0
 16 60  1  0  0  0  0
 16128  1  0  0  0  0
 16129  1  0  0  0  0
 17 62  1  0  0  0  0
 17132  1  0  0  0  0
 17133  1  0  0  0  0
 18 63  1  0  0  0  0
 18134  1  0  0  0  0
 18135  1  0  0  0  0
 19 65  1  0  0  0  0
 19137  1  0  0  0  0
 19138  1  0  0  0  0
 20 21  1  0  0  0  0
 20 22  1  0  0  0  0
 20 30  1  0  0  0  0
 21 25  1  0  0  0  0
 21 29  1  0  0  0  0
 21 34  1  0  0  0  0
 22 23  1  0  0  0  0
 22 68  1  0  0  0  0
 23 24  1  0  0  0  0
 23 33  1  0  0  0  0
 23 69  1  0  0  0  0
 24 26  1  0  0  0  0
 24 32  1  0  0  0  0
 24 36  1  0  0  0  0
 25 28  1  0  0  0  0
 25 37  1  0  0  0  0
 25 70  1  0  0  0  0
 26 27  1  0  0  0  0
 27 31  1  0  0  0  0
 27 41  1  0  0  0  0
 27 71  1  0  0  0  0
 28 39  1  0  0  0  0
 29 49  1  0  0  0  0
 29 72  1  0  0  0  0
 29 73  1  0  0  0  0
 30 74  1  0  0  0  0
 30 75  1  0  0  0  0
 30 76  1  0  0  0  0
 31 35  1  0  0  0  0
 31 77  1  0  0  0  0
 32 43  1  0  0  0  0
 32 78  1  0  0  0  0
 32 79  1  0  0  0  0
 33 51  1  0  0  0  0
 33 80  1  0  0  0  0
 33 81  1  0  0  0  0
 34 82  1  0  0  0  0
 34 83  1  0  0  0  0
 34 84  1  0  0  0  0
 35 38  1  0  0  0  0
 35 44  1  0  0  0  0
 35 85  1  0  0  0  0
 36 86  1  0  0  0  0
 36 87  1  0  0  0  0
 36 88  1  0  0  0  0
 37 48  1  0  0  0  0
 37 89  1  0  0  0  0
 37 90  1  0  0  0  0
 38 40  1  0  0  0  0
 38 52  1  0  0  0  0
 38 53  1  0  0  0  0
 39 45  2  3  0  0  0
 39 54  1  0  0  0  0
 40 47  1  0  0  0  0
 41 91  1  0  0  0  0
 41 92  1  0  0  0  0
 41 93  1  0  0  0  0
 42 45  1  0  0  0  0
 42 46  1  0  0  0  0
 42 55  1  0  0  0  0
 42 58  1  0  0  0  0
 43 59  1  0  0  0  0
 43 94  1  0  0  0  0
 43 95  1  0  0  0  0
 44 57  1  0  0  0  0
 44 96  1  0  0  0  0
 44 97  1  0  0  0  0
 46 50  1  0  0  0  0
 46 56  1  0  0  0  0
 46 98  1  0  0  0  0
 47 50  1  0  0  0  0
 47 99  1  0  0  0  0
 47100  1  0  0  0  0
 48 60  1  0  0  0  0
 48101  1  0  0  0  0
 48102  1  0  0  0  0
 52103  1  0  0  0  0
 52104  1  0  0  0  0
 52105  1  0  0  0  0
 53106  1  0  0  0  0
 53107  1  0  0  0  0
 53108  1  0  0  0  0
 54109  1  0  0  0  0
 54110  1  0  0  0  0
 54111  1  0  0  0  0
 55 62  1  0  0  0  0
 55112  1  0  0  0  0
 55113  1  0  0  0  0
 56 61  1  0  0  0  0
 56114  1  0  0  0  0
 56115  1  0  0  0  0
 57 63  1  0  0  0  0
 57116  1  0  0  0  0
 57117  1  0  0  0  0
 58118  1  0  0  0  0
 58119  1  0  0  0  0
 58120  1  0  0  0  0
 61 65  1  0  0  0  0
 61125  1  0  0  0  0
 61126  1  0  0  0  0
 64 66  1  0  0  0  0
 64130  1  0  0  0  0
 64131  1  0  0  0  0
 66 67  1  0  0  0  0
 66136  1  0  0  0  0
 67139  1  0  0  0  0
 67140  1  0  0  0  0
 67141  1  0  0  0  0
M  END
> <PUBCHEM_COMPOUND_CID>
319

> <PUBCHEM_COMPOUND_CANONICALIZED>
1

> <PUBCHEM_CACTVS_COMPLEXITY>
2230

> <PUBCHEM_CACTVS_HBOND_ACCEPTOR>
12

> <PUBCHEM_CACTVS_HBOND_DONOR>
8

> <PUBCHEM_CACTVS_ROTATABLE_BOND>
20

> <PUBCHEM_CACTVS_SUBSKEYS>
AAADcfB//AAAAAAAAAAAAAAAAAAAAQIECAAAAAAAAAAAAAAAAAAAHgAQCAAAD7zhgAYCAALAAgCoAwVwVAAAAAAgAAAACIE4ABgCUBIAgAAEAAAAlgCYAAMcicCfgAAAAAAAAAAAAAAAAAAAAAAAAAAAAA==

> <PUBCHEM_IUPAC_OPENEYE_NAME>
3-[2,13,18-tris(2-amino-2-oxo-ethyl)-12,17-bis(3-amino-3-oxo-propyl)-3-[3-(2-hydroxypropylamino)-3-oxo-propyl]-3,5,8,8,13,15,18,19-octamethyl-1,2,5,6,7,10,12,17-octahydrocorrin-7-yl]propanamide

> <PUBCHEM_IUPAC_CAS_NAME>
3-[2,13,18-tris(2-amino-2-oxoethyl)-12,17-bis(3-amino-3-oxopropyl)-3-[3-(2-hydroxypropylamino)-3-oxopropyl]-3,5,8,8,13,15,18,19-octamethyl-1,2,5,6,7,10,12,17-octahydrocorrin-7-yl]propanamide

> <PUBCHEM_IUPAC_NAME_MARKUP>
3-[2,13,18-tris(2-amino-2-oxoethyl)-12,17-bis(3-amino-3-oxopropyl)-3-[3-(2-hydroxypropylamino)-3-oxopropyl]-3,5,8,8,13,15,18,19-octamethyl-1,2,5,6,7,10,12,17-octahydrocorrin-7-yl]propanamide

> <PUBCHEM_IUPAC_NAME>
3-[2,13,18-tris(2-amino-2-oxoethyl)-12,17-bis(3-amino-3-oxopropyl)-3-[3-(2-hydroxypropylamino)-3-oxopropyl]-3,5,8,8,13,15,18,19-octamethyl-1,2,5,6,7,10,12,17-octahydrocorrin-7-yl]propanamide

> <PUBCHEM_IUPAC_SYSTEMATIC_NAME>
3-[2,13,18-tris(2-azanyl-2-oxidanylidene-ethyl)-12,17-bis(3-azanyl-3-oxidanylidene-propyl)-3,5,8,8,13,15,18,19-octamethyl-3-[3-oxidanylidene-3-(2-oxidanylpropylamino)propyl]-1,2,5,6,7,10,12,17-octahydrocorrin-7-yl]propanamide

> <PUBCHEM_IUPAC_TRADITIONAL_NAME>
3-[2,13,18-tris(2-amino-2-keto-ethyl)-12,17-bis(3-amino-3-keto-propyl)-3-[3-(2-hydroxypropylamino)-3-keto-propyl]-3,5,8,8,13,15,18,19-octamethyl-1,2,5,6,7,10,12,17-octahydrocorrin-7-yl]propionamide

> <PUBCHEM_IUPAC_INCHI>
InChI=1S/C48H75N11O8/c1-23(60)22-55-38(67)16-17-45(6)29(18-35(52)64)43-48(9)47(8,21-37(54)66)28(12-15-34(51)63)40(59-48)25(3)42-46(7,20-36(53)65)26(10-13-32(49)61)30(56-42)19-31-44(4,5)27(11-14-33(50)62)39(57-31)24(2)41(45)58-43/h23-24,26-29,39,43,60H,10-22H2,1-9H3,(H2,49,61)(H2,50,62)(H2,51,63)(H2,52,64)(H2,53,65)(H2,54,66)(H,55,67)

> <PUBCHEM_IUPAC_INCHIKEY>
SYBWFVYQKOQJDX-UHFFFAOYSA-N

> <PUBCHEM_XLOGP3_AA>
-4

> <PUBCHEM_EXACT_MASS>
933.58000839

> <PUBCHEM_MOLECULAR_FORMULA>
C48H75N11O8

> <PUBCHEM_MOLECULAR_WEIGHT>
934.2

> <PUBCHEM_SMILES>
CC1C2C(C(C(=N2)CC3=NC(=C(C4=NC(C5C(C(C1=N5)(C)CCC(=O)NCC(C)O)CC(=O)N)(C(C4CCC(=O)N)(C)CC(=O)N)C)C)C(C3CCC(=O)N)(C)CC(=O)N)(C)C)CCC(=O)N

> <PUBCHEM_CONNECTIVITY_SMILES>
CC1C2C(C(C(=N2)CC3=NC(=C(C4=NC(C5C(C(C1=N5)(C)CCC(=O)NCC(C)O)CC(=O)N)(C(C4CCC(=O)N)(C)CC(=O)N)C)C)C(C3CCC(=O)N)(C)CC(=O)N)(C)C)CCC(=O)N

> <PUBCHEM_CACTVS_TPSA>
357

> <PUBCHEM_MONOISOTOPIC_WEIGHT>
933.58000839

> <PUBCHEM_TOTAL_CHARGE>
0

> <PUBCHEM_HEAVY_ATOM_COUNT>
67

> <PUBCHEM_ATOM_DEF_STEREO_COUNT>
0

> <PUBCHEM_ATOM_UDEF_STEREO_COUNT>
12

> <PUBCHEM_BOND_DEF_STEREO_COUNT>
0

> <PUBCHEM_BOND_UDEF_STEREO_COUNT>
1

> <PUBCHEM_ISOTOPIC_ATOM_COUNT>
0

> <PUBCHEM_COMPONENT_COUNT>
1

> <PUBCHEM_CACTVS_TAUTO_COUNT>
-1

> <PUBCHEM_COORDINATE_TYPE>
1
5
255

> <PUBCHEM_BONDANNOTATIONS>
31  11  3
20  30  3
21  34  3
23  33  3
24  36  3
25  37  3
27  41  3
35  44  3
39  45  1
42  58  3
46  56  3
66  8  3
22  9  3

$$$$
