536
  -OEChem-08152602552D

123127  0     1  0  0  0  0  0999 V2000
   14.1985   -1.2022    0.0000 O   0  0  0  0  0  0  0  0  0  0  0  0
   12.5923   -1.8503    0.0000 O   0  0  0  0  0  0  0  0  0  0  0  0
   11.5535   -3.9005    0.0000 O   0  0  0  0  0  0  0  0  0  0  0  0
   11.3618   -2.1791    0.0000 O   0  0  0  0  0  0  0  0  0  0  0  0
    6.9907   -5.5650    0.0000 O   0  0  0  0  0  0  0  0  0  0  0  0
   13.9818    3.0833    0.0000 O   0  0  0  0  0  0  0  0  0  0  0  0
    8.7133   -5.3840    0.0000 O   0  0  0  0  0  0  0  0  0  0  0  0
   12.7667    4.3176    0.0000 O   0  0  0  0  0  0  0  0  0  0  0  0
   10.1700    5.8636    0.0000 O   0  0  0  0  0  0  0  0  0  0  0  0
   11.0584    4.3768    0.0000 O   0  0  0  0  0  0  0  0  0  0  0  0
    5.1940    4.7406    0.0000 O   0  0  0  0  0  0  0  0  0  0  0  0
    6.5890    5.7672    0.0000 O   0  0  0  0  0  0  0  0  0  0  0  0
    2.4934   -0.4661    0.0000 O   0  0  0  0  0  0  0  0  0  0  0  0
    3.5421   -1.8446    0.0000 O   0  0  0  0  0  0  0  0  0  0  0  0
   10.3483    0.4590    0.0000 N   0  0  0  0  0  0  0  0  0  0  0  0
    8.8869   -0.8737    0.0000 N   0  0  0  0  0  0  0  0  0  0  0  0
    7.4238    0.4590    0.0000 N   0  0  0  0  0  0  0  0  0  0  0  0
    8.8543    1.7918    0.0000 N   0  0  0  0  0  0  0  0  0  0  0  0
   10.9333   -0.2563    0.0000 C   0  0  3  0  0  0  0  0  0  0  0  0
   11.8439    0.0045    0.0000 C   0  0  3  0  0  0  0  0  0  0  0  0
    9.6673   -1.4587    0.0000 C   0  0  3  0  0  0  0  0  0  0  0  0
    9.3741   -2.4004    0.0000 C   0  0  3  0  0  0  0  0  0  0  0  0
    8.3997   -2.4004    0.0000 C   0  0  3  0  0  0  0  0  0  0  0  0
   11.8439    0.9787    0.0000 C   0  0  3  0  0  0  0  0  0  0  0  0
    8.1064   -1.4913    0.0000 C   0  0  0  0  0  0  0  0  0  0  0  0
   10.9007    1.2394    0.0000 C   0  0  0  0  0  0  0  0  0  0  0  0
   12.8341   -0.1352    0.0000 C   0  0  0  0  0  0  0  0  0  0  0  0
   11.4295   -1.1245    0.0000 C   0  0  0  0  0  0  0  0  0  0  0  0
   12.0171   -0.9804    0.0000 C   0  0  0  0  0  0  0  0  0  0  0  0
    8.5042   -3.3950    0.0000 C   0  0  0  0  0  0  0  0  0  0  0  0
    9.9668   -3.2058    0.0000 C   0  0  0  0  0  0  0  0  0  0  0  0
   12.5566    1.6802    0.0000 C   0  0  0  0  0  0  0  0  0  0  0  0
    7.1647   -1.1980    0.0000 C   0  0  3  0  0  0  0  0  0  0  0  0
    7.4862   -2.8072    0.0000 C   0  0  0  0  0  0  0  0  0  0  0  0
   10.6090    2.1485    0.0000 C   0  0  0  0  0  0  0  0  0  0  0  0
    9.3415    3.3510    0.0000 C   0  0  3  0  0  0  0  0  0  0  0  0
    6.8715   -0.2889    0.0000 C   0  0  0  0  0  0  0  0  0  0  0  0
    9.6673    2.4418    0.0000 C   0  0  0  0  0  0  0  0  0  0  0  0
    7.6952   -3.9827    0.0000 C   0  0  0  0  0  0  0  0  0  0  0  0
    8.3671    3.3510    0.0000 C   0  0  3  0  0  0  0  0  0  0  0  0
   12.3053    2.6481    0.0000 C   0  0  0  0  0  0  0  0  0  0  0  0
    6.8715    1.2068    0.0000 C   0  0  3  0  0  0  0  0  0  0  0  0
   13.2083   -1.0626    0.0000 C   0  0  0  0  0  0  0  0  0  0  0  0
    6.4940   -1.9397    0.0000 C   0  0  0  0  0  0  0  0  0  0  0  0
    8.0738    2.4092    0.0000 C   0  0  0  0  0  0  0  0  0  0  0  0
   10.9607   -3.0951    0.0000 C   0  0  0  0  0  0  0  0  0  0  0  0
    7.1322    2.1485    0.0000 C   0  0  0  0  0  0  0  0  0  0  0  0
    5.9298   -0.0282    0.0000 C   0  0  0  0  0  0  0  0  0  0  0  0
   11.3439    2.8267    0.0000 C   0  0  0  0  0  0  0  0  0  0  0  0
    5.9298    0.9461    0.0000 C   0  0  0  0  0  0  0  0  0  0  0  0
    9.3265    4.3508    0.0000 C   0  0  0  0  0  0  0  0  0  0  0  0
   10.2878    3.6742    0.0000 C   0  0  0  0  0  0  0  0  0  0  0  0
    7.7744    4.1564    0.0000 C   0  0  0  0  0  0  0  0  0  0  0  0
    6.1644    1.9139    0.0000 C   0  0  0  0  0  0  0  0  0  0  0  0
    5.1339   -0.6336    0.0000 C   0  0  0  0  0  0  0  0  0  0  0  0
    7.7997   -4.9772    0.0000 C   0  0  0  0  0  0  0  0  0  0  0  0
   13.0180    3.3497    0.0000 C   0  0  0  0  0  0  0  0  0  0  0  0
    6.7806    4.0458    0.0000 C   0  0  0  0  0  0  0  0  0  0  0  0
    5.1339    1.5516    0.0000 C   0  0  0  0  0  0  0  0  0  0  0  0
   10.1849    4.8637    0.0000 C   0  0  0  0  0  0  0  0  0  0  0  0
    4.2116   -0.2471    0.0000 C   0  0  0  0  0  0  0  0  0  0  0  0
    6.1878    4.8512    0.0000 C   0  0  0  0  0  0  0  0  0  0  0  0
    3.4157   -0.8526    0.0000 C   0  0  0  0  0  0  0  0  0  0  0  0
   10.1937   -1.7862    0.0000 H   0  0  0  0  0  0  0  0  0  0  0  0
    9.0943   -2.9537    0.0000 H   0  0  0  0  0  0  0  0  0  0  0  0
   12.4158    0.7392    0.0000 H   0  0  0  0  0  0  0  0  0  0  0  0
   13.4407   -0.0066    0.0000 H   0  0  0  0  0  0  0  0  0  0  0  0
   12.8128    0.4844    0.0000 H   0  0  0  0  0  0  0  0  0  0  0  0
   10.8912   -1.4321    0.0000 H   0  0  0  0  0  0  0  0  0  0  0  0
   11.7371   -1.6628    0.0000 H   0  0  0  0  0  0  0  0  0  0  0  0
   11.9677   -0.8168    0.0000 H   0  0  0  0  0  0  0  0  0  0  0  0
   11.4065   -1.0878    0.0000 H   0  0  0  0  0  0  0  0  0  0  0  0
   12.1245   -1.5911    0.0000 H   0  0  0  0  0  0  0  0  0  0  0  0
   12.6277   -0.8731    0.0000 H   0  0  0  0  0  0  0  0  0  0  0  0
    8.7760   -3.9522    0.0000 H   0  0  0  0  0  0  0  0  0  0  0  0
    9.1002   -3.2241    0.0000 H   0  0  0  0  0  0  0  0  0  0  0  0
    9.4113   -3.4810    0.0000 H   0  0  0  0  0  0  0  0  0  0  0  0
   10.1414   -3.8007    0.0000 H   0  0  0  0  0  0  0  0  0  0  0  0
   12.9082    1.1696    0.0000 H   0  0  0  0  0  0  0  0  0  0  0  0
   13.1205    1.9378    0.0000 H   0  0  0  0  0  0  0  0  0  0  0  0
    6.5585   -1.0678    0.0000 H   0  0  0  0  0  0  0  0  0  0  0  0
    7.2340   -2.2407    0.0000 H   0  0  0  0  0  0  0  0  0  0  0  0
    6.9198   -3.0593    0.0000 H   0  0  0  0  0  0  0  0  0  0  0  0
    7.7384   -3.3736    0.0000 H   0  0  0  0  0  0  0  0  0  0  0  0
    7.4234   -3.4255    0.0000 H   0  0  0  0  0  0  0  0  0  0  0  0
    7.0992   -4.1536    0.0000 H   0  0  0  0  0  0  0  0  0  0  0  0
    7.7557    3.2484    0.0000 H   0  0  0  0  0  0  0  0  0  0  0  0
   11.9537    3.1588    0.0000 H   0  0  0  0  0  0  0  0  0  0  0  0
   11.7414    2.3905    0.0000 H   0  0  0  0  0  0  0  0  0  0  0  0
    6.0341   -1.5239    0.0000 H   0  0  0  0  0  0  0  0  0  0  0  0
    6.0781   -2.3996    0.0000 H   0  0  0  0  0  0  0  0  0  0  0  0
    6.9538   -2.3556    0.0000 H   0  0  0  0  0  0  0  0  0  0  0  0
    7.0764    2.7660    0.0000 H   0  0  0  0  0  0  0  0  0  0  0  0
    6.5147    2.2042    0.0000 H   0  0  0  0  0  0  0  0  0  0  0  0
    8.0398    0.5286    0.0000 H   0  0  0  0  0  0  0  0  0  0  0  0
   11.7644    2.3711    0.0000 H   0  0  0  0  0  0  0  0  0  0  0  0
   11.7995    3.2472    0.0000 H   0  0  0  0  0  0  0  0  0  0  0  0
   10.9234    3.2823    0.0000 H   0  0  0  0  0  0  0  0  0  0  0  0
    9.1058    4.9302    0.0000 H   0  0  0  0  0  0  0  0  0  0  0  0
    8.7176    4.2341    0.0000 H   0  0  0  0  0  0  0  0  0  0  0  0
   10.4882    3.0874    0.0000 H   0  0  0  0  0  0  0  0  0  0  0  0
   10.8745    3.8746    0.0000 H   0  0  0  0  0  0  0  0  0  0  0  0
   10.0874    4.2609    0.0000 H   0  0  0  0  0  0  0  0  0  0  0  0
    8.3300    4.4316    0.0000 H   0  0  0  0  0  0  0  0  0  0  0  0
    7.5999    4.7513    0.0000 H   0  0  0  0  0  0  0  0  0  0  0  0
    6.6028    2.3523    0.0000 H   0  0  0  0  0  0  0  0  0  0  0  0
    5.7260    2.3523    0.0000 H   0  0  0  0  0  0  0  0  0  0  0  0
    5.7260    1.4755    0.0000 H   0  0  0  0  0  0  0  0  0  0  0  0
    4.7986   -1.1551    0.0000 H   0  0  0  0  0  0  0  0  0  0  0  0
    5.5892   -1.0544    0.0000 H   0  0  0  0  0  0  0  0  0  0  0  0
   14.5804   -0.7138    0.0000 H   0  0  0  0  0  0  0  0  0  0  0  0
    6.2250    3.7706    0.0000 H   0  0  0  0  0  0  0  0  0  0  0  0
    6.9551    3.4508    0.0000 H   0  0  0  0  0  0  0  0  0  0  0  0
   11.3048   -4.4684    0.0000 H   0  0  0  0  0  0  0  0  0  0  0  0
    5.2123    2.1666    0.0000 H   0  0  0  0  0  0  0  0  0  0  0  0
    4.5621    1.3119    0.0000 H   0  0  0  0  0  0  0  0  0  0  0  0
    4.5469    0.2744    0.0000 H   0  0  0  0  0  0  0  0  0  0  0  0
    3.7562    0.1736    0.0000 H   0  0  0  0  0  0  0  0  0  0  0  0
    7.0555   -6.1816    0.0000 H   0  0  0  0  0  0  0  0  0  0  0  0
   14.4237    3.5182    0.0000 H   0  0  0  0  0  0  0  0  0  0  0  0
   10.7022    6.1816    0.0000 H   0  0  0  0  0  0  0  0  0  0  0  0
    4.8265    5.2399    0.0000 H   0  0  0  0  0  0  0  0  0  0  0  0
    2.0000   -0.8415    0.0000 H   0  0  0  0  0  0  0  0  0  0  0  0
  1 43  1  0  0  0  0
  1111  1  0  0  0  0
  2 43  2  0  0  0  0
  3 46  1  0  0  0  0
  3114  1  0  0  0  0
  4 46  2  0  0  0  0
  5 56  1  0  0  0  0
  5119  1  0  0  0  0
  6 57  1  0  0  0  0
  6120  1  0  0  0  0
  7 56  2  0  0  0  0
  8 57  2  0  0  0  0
  9 60  1  0  0  0  0
  9121  1  0  0  0  0
 10 60  2  0  0  0  0
 11 62  1  0  0  0  0
 11122  1  0  0  0  0
 12 62  2  0  0  0  0
 13 63  1  0  0  0  0
 13123  1  0  0  0  0
 14 63  2  0  0  0  0
 15 19  1  0  0  0  0
 15 26  2  0  0  0  0
 16 21  1  0  0  0  0
 16 25  2  0  0  0  0
 17 37  1  0  0  0  0
 17 42  1  0  0  0  0
 17 95  1  0  0  0  0
 18 38  1  0  0  0  0
 18 45  2  0  0  0  0
 19 20  1  0  0  0  0
 19 21  1  0  0  0  0
 19 28  1  0  0  0  0
 20 24  1  0  0  0  0
 20 27  1  0  0  0  0
 20 29  1  0  0  0  0
 21 22  1  0  0  0  0
 21 64  1  0  0  0  0
 22 23  1  0  0  0  0
 22 31  1  0  0  0  0
 22 65  1  0  0  0  0
 23 25  1  0  0  0  0
 23 30  1  0  0  0  0
 23 34  1  0  0  0  0
 24 26  1  0  0  0  0
 24 32  1  0  0  0  0
 24 66  1  0  0  0  0
 25 33  1  0  0  0  0
 26 35  1  0  0  0  0
 27 43  1  0  0  0  0
 27 67  1  0  0  0  0
 27 68  1  0  0  0  0
 28 69  1  0  0  0  0
 28 70  1  0  0  0  0
 28 71  1  0  0  0  0
 29 72  1  0  0  0  0
 29 73  1  0  0  0  0
 29 74  1  0  0  0  0
 30 39  1  0  0  0  0
 30 75  1  0  0  0  0
 30 76  1  0  0  0  0
 31 46  1  0  0  0  0
 31 77  1  0  0  0  0
 31 78  1  0  0  0  0
 32 41  1  0  0  0  0
 32 79  1  0  0  0  0
 32 80  1  0  0  0  0
 33 37  1  0  0  0  0
 33 44  1  0  0  0  0
 33 81  1  0  0  0  0
 34 82  1  0  0  0  0
 34 83  1  0  0  0  0
 34 84  1  0  0  0  0
 35 38  2  3  0  0  0
 35 49  1  0  0  0  0
 36 38  1  0  0  0  0
 36 40  1  0  0  0  0
 36 51  1  0  0  0  0
 36 52  1  0  0  0  0
 37 48  2  0  0  0  0
 39 56  1  0  0  0  0
 39 85  1  0  0  0  0
 39 86  1  0  0  0  0
 40 45  1  0  0  0  0
 40 53  1  0  0  0  0
 40 87  1  0  0  0  0
 41 57  1  0  0  0  0
 41 88  1  0  0  0  0
 41 89  1  0  0  0  0
 42 47  1  0  0  0  0
 42 50  1  0  0  0  0
 42 54  1  0  0  0  0
 44 90  1  0  0  0  0
 44 91  1  0  0  0  0
 44 92  1  0  0  0  0
 45 47  1  0  0  0  0
 47 93  1  0  0  0  0
 47 94  1  0  0  0  0
 48 50  1  0  0  0  0
 48 55  1  0  0  0  0
 49 96  1  0  0  0  0
 49 97  1  0  0  0  0
 49 98  1  0  0  0  0
 50 59  2  0  0  0  0
 51 60  1  0  0  0  0
 51 99  1  0  0  0  0
 51100  1  0  0  0  0
 52101  1  0  0  0  0
 52102  1  0  0  0  0
 52103  1  0  0  0  0
 53 58  1  0  0  0  0
 53104  1  0  0  0  0
 53105  1  0  0  0  0
 54106  1  0  0  0  0
 54107  1  0  0  0  0
 54108  1  0  0  0  0
 55 61  1  0  0  0  0
 55109  1  0  0  0  0
 55110  1  0  0  0  0
 58 62  1  0  0  0  0
 58112  1  0  0  0  0
 58113  1  0  0  0  0
 59115  1  0  0  0  0
 59116  1  0  0  0  0
 61 63  1  0  0  0  0
 61117  1  0  0  0  0
 61118  1  0  0  0  0
M  END
> <PUBCHEM_COMPOUND_CID>
536

> <PUBCHEM_COMPOUND_CANONICALIZED>
1

> <PUBCHEM_CACTVS_COMPLEXITY>
2210

> <PUBCHEM_CACTVS_HBOND_ACCEPTOR>
18

> <PUBCHEM_CACTVS_HBOND_DONOR>
8

> <PUBCHEM_CACTVS_ROTATABLE_BOND>
18

> <PUBCHEM_CACTVS_SUBSKEYS>
AAADcfB/vAAAAAAAAAAAAAAAAAAAAQIECAAAAAAAAAAAAAAAAAAAHgAQCAAAD6jBgAQCCALAAgCoAwTyTACAAAAgAAAACAEwABgIQBIAgAAEQAAEkACIgAO82fGfgAAAAAAAAAAAAAAAAAAAAAAAAAAAAA==

> <PUBCHEM_IUPAC_OPENEYE_NAME>
3-[3,13,17-tris(2-carboxyethyl)-2,7,18-tris(carboxymethyl)-1,2,5,7,11,15,17-heptamethyl-12-methylene-8,10,15,18,19,23-hexahydro-3H-corrin-8-yl]propanoic acid

> <PUBCHEM_IUPAC_CAS_NAME>
3-[3,13,17-tris(2-carboxyethyl)-2,7,18-tris(carboxymethyl)-1,2,5,7,11,15,17-heptamethyl-12-methylene-8,10,15,18,19,23-hexahydro-3H-corrin-8-yl]propanoic acid

> <PUBCHEM_IUPAC_NAME_MARKUP>
3-[3,13,17-tris(2-carboxyethyl)-2,7,18-tris(carboxymethyl)-1,2,5,7,11,15,17-heptamethyl-12-methylidene-8,10,15,18,19,23-hexahydro-3<I>H</I>-corrin-8-yl]propanoic acid

> <PUBCHEM_IUPAC_NAME>
3-[3,13,17-tris(2-carboxyethyl)-2,7,18-tris(carboxymethyl)-1,2,5,7,11,15,17-heptamethyl-12-methylidene-8,10,15,18,19,23-hexahydro-3H-corrin-8-yl]propanoic acid

> <PUBCHEM_IUPAC_SYSTEMATIC_NAME>
3-[2,7,18-tris(2-hydroxy-2-oxoethyl)-3,13,17-tris(3-hydroxy-3-oxopropyl)-1,2,5,7,11,15,17-heptamethyl-12-methylidene-8,10,15,18,19,23-hexahydro-3H-corrin-8-yl]propanoic acid

> <PUBCHEM_IUPAC_TRADITIONAL_NAME>
3-[3,13,17-tris(2-carboxyethyl)-2,7,18-tris(carboxymethyl)-1,2,5,7,11,15,17-heptamethyl-12-methylene-8,10,15,18,19,23-hexahydro-3H-corrin-8-yl]propionic acid

> <PUBCHEM_IUPAC_INCHI>
InChI=1S/C45H60N4O14/c1-21-36-24(9-12-29(50)51)23(3)44(7,48-36)18-28-25(10-13-30(52)53)42(5,19-34(60)61)39(46-28)22(2)37-26(11-14-31(54)55)43(6,20-35(62)63)45(8,49-37)40-27(17-33(58)59)41(4,38(21)47-40)16-15-32(56)57/h21,25-27,40,48H,3,9-20H2,1-2,4-8H3,(H,50,51)(H,52,53)(H,54,55)(H,56,57)(H,58,59)(H,60,61)(H,62,63)

> <PUBCHEM_IUPAC_INCHIKEY>
LPJNFGOOIPHXHU-UHFFFAOYSA-N

> <PUBCHEM_XLOGP3_AA>
-0.3

> <PUBCHEM_EXACT_MASS>
880.41060260

> <PUBCHEM_MOLECULAR_FORMULA>
C45H60N4O14

> <PUBCHEM_MOLECULAR_WEIGHT>
881.0

> <PUBCHEM_SMILES>
CC1C2=C(C(=C)C(N2)(CC3=NC(=C(C4=NC(C5C(C(C1=N5)(C)CCC(=O)O)CC(=O)O)(C(C4CCC(=O)O)(C)CC(=O)O)C)C)C(C3CCC(=O)O)(C)CC(=O)O)C)CCC(=O)O

> <PUBCHEM_CONNECTIVITY_SMILES>
CC1C2=C(C(=C)C(N2)(CC3=NC(=C(C4=NC(C5C(C(C1=N5)(C)CCC(=O)O)CC(=O)O)(C(C4CCC(=O)O)(C)CC(=O)O)C)C)C(C3CCC(=O)O)(C)CC(=O)O)C)CCC(=O)O

> <PUBCHEM_CACTVS_TPSA>
310

> <PUBCHEM_MONOISOTOPIC_WEIGHT>
880.41060260

> <PUBCHEM_TOTAL_CHARGE>
0

> <PUBCHEM_HEAVY_ATOM_COUNT>
63

> <PUBCHEM_ATOM_DEF_STEREO_COUNT>
0

> <PUBCHEM_ATOM_UDEF_STEREO_COUNT>
10

> <PUBCHEM_BOND_DEF_STEREO_COUNT>
0

> <PUBCHEM_BOND_UDEF_STEREO_COUNT>
1

> <PUBCHEM_ISOTOPIC_ATOM_COUNT>
0

> <PUBCHEM_COMPONENT_COUNT>
1

> <PUBCHEM_CACTVS_TAUTO_COUNT>
-1

> <PUBCHEM_COORDINATE_TYPE>
1
5
255

> <PUBCHEM_BONDANNOTATIONS>
21  16  3
19  28  3
20  29  3
22  31  3
23  34  3
24  32  3
33  44  3
35  38  1
36  52  3
40  53  3
42  54  3

$$$$
