518
  -OEChem-08152602532D

114119  0     1  0  0  0  0  0999 V2000
    9.6155   -2.5035    0.0000 O   0  0  0  0  0  0  0  0  0  0  0  0
   10.4769   -2.7517    0.0000 O   0  0  0  0  0  0  0  0  0  0  0  0
   10.8910   -3.7481    0.0000 O   0  0  0  0  0  0  0  0  0  0  0  0
    5.5510   -5.8960    0.0000 O   0  0  0  0  0  0  0  0  0  0  0  0
    4.1508   -4.8764    0.0000 O   0  0  0  0  0  0  0  0  0  0  0  0
    2.2981   -1.9536    0.0000 O   0  0  0  0  0  0  0  0  0  0  0  0
    3.8168   -2.7864    0.0000 O   0  0  0  0  0  0  0  0  0  0  0  0
   13.3740   -1.8128    0.0000 O   0  0  0  0  0  0  0  0  0  0  0  0
   12.6976   -0.2183    0.0000 O   0  0  0  0  0  0  0  0  0  0  0  0
    3.4395    3.1634    0.0000 O   0  0  0  0  0  0  0  0  0  0  0  0
    2.3908    1.7850    0.0000 O   0  0  0  0  0  0  0  0  0  0  0  0
   12.1947    3.1972    0.0000 O   0  0  0  0  0  0  0  0  0  0  0  0
   13.2437    1.8189    0.0000 O   0  0  0  0  0  0  0  0  0  0  0  0
    5.1040    3.9403    0.0000 O   0  0  0  0  0  0  0  0  0  0  0  0
    5.2956    2.2188    0.0000 O   0  0  0  0  0  0  0  0  0  0  0  0
    8.5951    5.8902    0.0000 O   0  0  0  0  0  0  0  0  0  0  0  0
   10.0115    4.8932    0.0000 O   0  0  0  0  0  0  0  0  0  0  0  0
    7.8175   -1.9017    0.0000 N   0  0  0  0  0  0  0  0  0  0  0  0
    9.3194   -0.5321    0.0000 N   0  0  0  0  0  0  0  0  0  0  0  0
    6.3138   -0.5321    0.0000 N   0  0  0  0  0  0  0  0  0  0  0  0
    7.7840    0.8375    0.0000 N   0  0  0  0  0  0  0  0  0  0  0  0
    8.3181   -3.4707    0.0000 C   0  0  3  0  0  0  0  0  0  0  0  0
    8.6195   -2.5029    0.0000 C   0  0  3  0  0  0  0  0  0  0  0  0
    7.3168   -3.4707    0.0000 C   0  0  3  0  0  0  0  0  0  0  0  0
    9.6208   -2.2350    0.0000 C   0  0  3  0  0  0  0  0  0  0  0  0
    9.1344   -4.0486    0.0000 C   0  0  0  0  0  0  0  0  0  0  0  0
    7.0154   -2.5364    0.0000 C   0  0  0  0  0  0  0  0  0  0  0  0
    8.0149   -4.4236    0.0000 C   0  0  0  0  0  0  0  0  0  0  0  0
    6.7282   -4.2791    0.0000 C   0  0  0  0  0  0  0  0  0  0  0  0
    9.9362   -3.4508    0.0000 C   0  0  0  0  0  0  0  0  0  0  0  0
    9.9205   -1.2671    0.0000 C   0  0  0  0  0  0  0  0  0  0  0  0
    9.1041   -3.0911    0.0000 C   0  0  0  0  0  0  0  0  0  0  0  0
    6.0476   -2.2350    0.0000 C   0  0  0  0  0  0  0  0  0  0  0  0
    4.7784   -1.0327    0.0000 C   0  0  3  0  0  0  0  0  0  0  0  0
    5.7462   -1.3006    0.0000 C   0  0  0  0  0  0  0  0  0  0  0  0
    5.7338   -4.1736    0.0000 C   0  0  0  0  0  0  0  0  0  0  0  0
    4.7784   -0.0315    0.0000 C   0  0  3  0  0  0  0  0  0  0  0  0
   10.8565   -0.9993    0.0000 C   0  0  0  0  0  0  0  0  0  0  0  0
    5.7462    0.2365    0.0000 C   0  0  0  0  0  0  0  0  0  0  0  0
   10.8565    0.0020    0.0000 C   0  0  0  0  0  0  0  0  0  0  0  0
    9.8870    0.2700    0.0000 C   0  0  0  0  0  0  0  0  0  0  0  0
    3.7786   -1.0547    0.0000 C   0  0  0  0  0  0  0  0  0  0  0  0
    4.4904   -1.9903    0.0000 C   0  0  0  0  0  0  0  0  0  0  0  0
    3.9825    0.5740    0.0000 C   0  0  0  0  0  0  0  0  0  0  0  0
   11.6549   -1.6013    0.0000 C   0  0  0  0  0  0  0  0  0  0  0  0
    5.1452   -4.9820    0.0000 C   0  0  0  0  0  0  0  0  0  0  0  0
    9.5873    1.2043    0.0000 C   0  0  0  0  0  0  0  0  0  0  0  0
   11.6522    0.6077    0.0000 C   0  0  0  0  0  0  0  0  0  0  0  0
    6.0142    1.2043    0.0000 C   0  0  0  0  0  0  0  0  0  0  0  0
    4.1090    1.5660    0.0000 C   0  0  0  0  0  0  0  0  0  0  0  0
    8.6195    1.5057    0.0000 C   0  0  0  0  0  0  0  0  0  0  0  0
    6.9819    1.4722    0.0000 C   0  0  0  0  0  0  0  0  0  0  0  0
    3.2978   -1.9316    0.0000 C   0  0  0  0  0  0  0  0  0  0  0  0
    8.2846    2.4400    0.0000 C   0  0  0  0  0  0  0  0  0  0  0  0
    7.2833    2.4400    0.0000 C   0  0  0  0  0  0  0  0  0  0  0  0
   11.5256    1.5996    0.0000 C   0  0  0  0  0  0  0  0  0  0  0  0
   12.5755   -1.2108    0.0000 C   0  0  0  0  0  0  0  0  0  0  0  0
    3.3131    2.1714    0.0000 C   0  0  0  0  0  0  0  0  0  0  0  0
    8.8602    3.2578    0.0000 C   0  0  0  0  0  0  0  0  0  0  0  0
    6.6906    3.2454    0.0000 C   0  0  0  0  0  0  0  0  0  0  0  0
   12.3213    2.2052    0.0000 C   0  0  0  0  0  0  0  0  0  0  0  0
    8.4399    4.1651    0.0000 C   0  0  0  0  0  0  0  0  0  0  0  0
    5.6967    3.1348    0.0000 C   0  0  0  0  0  0  0  0  0  0  0  0
    9.0155    4.9828    0.0000 C   0  0  0  0  0  0  0  0  0  0  0  0
    6.7046   -3.3728    0.0000 H   0  0  0  0  0  0  0  0  0  0  0  0
    8.7253   -4.5144    0.0000 H   0  0  0  0  0  0  0  0  0  0  0  0
    9.5549   -4.5042    0.0000 H   0  0  0  0  0  0  0  0  0  0  0  0
    7.4241   -4.2356    0.0000 H   0  0  0  0  0  0  0  0  0  0  0  0
    7.8269   -5.0144    0.0000 H   0  0  0  0  0  0  0  0  0  0  0  0
    8.6057   -4.6116    0.0000 H   0  0  0  0  0  0  0  0  0  0  0  0
    6.5567   -4.8749    0.0000 H   0  0  0  0  0  0  0  0  0  0  0  0
    7.2852   -4.5515    0.0000 H   0  0  0  0  0  0  0  0  0  0  0  0
    8.5733   -2.7708    0.0000 H   0  0  0  0  0  0  0  0  0  0  0  0
    8.7838   -3.6220    0.0000 H   0  0  0  0  0  0  0  0  0  0  0  0
    9.6350   -3.4115    0.0000 H   0  0  0  0  0  0  0  0  0  0  0  0
    5.6114   -2.6756    0.0000 H   0  0  0  0  0  0  0  0  0  0  0  0
    5.9053   -3.5778    0.0000 H   0  0  0  0  0  0  0  0  0  0  0  0
    5.1768   -3.9012    0.0000 H   0  0  0  0  0  0  0  0  0  0  0  0
    4.2229   -0.3068    0.0000 H   0  0  0  0  0  0  0  0  0  0  0  0
   11.0198   -2.4522    0.0000 H   0  0  0  0  0  0  0  0  0  0  0  0
    8.6997   -0.5537    0.0000 H   0  0  0  0  0  0  0  0  0  0  0  0
    6.9338   -0.5321    0.0000 H   0  0  0  0  0  0  0  0  0  0  0  0
    3.8728   -0.4419    0.0000 H   0  0  0  0  0  0  0  0  0  0  0  0
    3.1915   -0.8556    0.0000 H   0  0  0  0  0  0  0  0  0  0  0  0
    3.8967   -1.8118    0.0000 H   0  0  0  0  0  0  0  0  0  0  0  0
    4.3119   -2.5841    0.0000 H   0  0  0  0  0  0  0  0  0  0  0  0
    5.0842   -2.1689    0.0000 H   0  0  0  0  0  0  0  0  0  0  0  0
    3.3905    0.7580    0.0000 H   0  0  0  0  0  0  0  0  0  0  0  0
    3.6985    0.0229    0.0000 H   0  0  0  0  0  0  0  0  0  0  0  0
   11.2014   -2.0240    0.0000 H   0  0  0  0  0  0  0  0  0  0  0  0
   11.9925   -2.1214    0.0000 H   0  0  0  0  0  0  0  0  0  0  0  0
   10.2038    1.2701    0.0000 H   0  0  0  0  0  0  0  0  0  0  0  0
    9.6478    1.8213    0.0000 H   0  0  0  0  0  0  0  0  0  0  0  0
   11.9363    0.0566    0.0000 H   0  0  0  0  0  0  0  0  0  0  0  0
   12.2442    0.7918    0.0000 H   0  0  0  0  0  0  0  0  0  0  0  0
    5.5757    1.6427    0.0000 H   0  0  0  0  0  0  0  0  0  0  0  0
    4.7010    1.3820    0.0000 H   0  0  0  0  0  0  0  0  0  0  0  0
    4.3930    2.1171    0.0000 H   0  0  0  0  0  0  0  0  0  0  0  0
    7.7856    0.2175    0.0000 H   0  0  0  0  0  0  0  0  0  0  0  0
   11.2415    2.1507    0.0000 H   0  0  0  0  0  0  0  0  0  0  0  0
   10.9335    1.4155    0.0000 H   0  0  0  0  0  0  0  0  0  0  0  0
    5.1860   -6.3972    0.0000 H   0  0  0  0  0  0  0  0  0  0  0  0
    9.2976    2.8182    0.0000 H   0  0  0  0  0  0  0  0  0  0  0  0
    9.3690    3.6121    0.0000 H   0  0  0  0  0  0  0  0  0  0  0  0
    7.2462    3.5206    0.0000 H   0  0  0  0  0  0  0  0  0  0  0  0
    6.5161    3.8404    0.0000 H   0  0  0  0  0  0  0  0  0  0  0  0
    2.0000   -2.4973    0.0000 H   0  0  0  0  0  0  0  0  0  0  0  0
   13.9448   -1.5707    0.0000 H   0  0  0  0  0  0  0  0  0  0  0  0
    8.0026    4.6046    0.0000 H   0  0  0  0  0  0  0  0  0  0  0  0
    7.9311    3.8108    0.0000 H   0  0  0  0  0  0  0  0  0  0  0  0
    2.9461    3.5388    0.0000 H   0  0  0  0  0  0  0  0  0  0  0  0
   12.6881    3.5727    0.0000 H   0  0  0  0  0  0  0  0  0  0  0  0
    5.3527    4.5082    0.0000 H   0  0  0  0  0  0  0  0  0  0  0  0
    8.9520    6.3972    0.0000 H   0  0  0  0  0  0  0  0  0  0  0  0
  1 23  1  0  0  0  0
  1 30  1  0  0  0  0
  2 25  1  0  0  0  0
  2 80  1  0  0  0  0
  3 30  2  0  0  0  0
  4 46  1  0  0  0  0
  4102  1  0  0  0  0
  5 46  2  0  0  0  0
  6 53  1  0  0  0  0
  6107  1  0  0  0  0
  7 53  2  0  0  0  0
  8 57  1  0  0  0  0
  8108  1  0  0  0  0
  9 57  2  0  0  0  0
 10 58  1  0  0  0  0
 10111  1  0  0  0  0
 11 58  2  0  0  0  0
 12 61  1  0  0  0  0
 12112  1  0  0  0  0
 13 61  2  0  0  0  0
 14 63  1  0  0  0  0
 14113  1  0  0  0  0
 15 63  2  0  0  0  0
 16 64  1  0  0  0  0
 16114  1  0  0  0  0
 17 64  2  0  0  0  0
 18 23  1  0  0  0  0
 18 27  2  0  0  0  0
 19 31  1  0  0  0  0
 19 41  1  0  0  0  0
 19 81  1  0  0  0  0
 20 35  1  0  0  0  0
 20 39  1  0  0  0  0
 20 82  1  0  0  0  0
 21 51  1  0  0  0  0
 21 52  1  0  0  0  0
 21 99  1  0  0  0  0
 22 23  1  0  0  0  0
 22 24  1  0  0  0  0
 22 26  1  0  0  0  0
 22 28  1  0  0  0  0
 23 25  1  0  0  0  0
 24 27  1  0  0  0  0
 24 29  1  0  0  0  0
 24 65  1  0  0  0  0
 25 31  1  0  0  0  0
 25 32  1  0  0  0  0
 26 30  1  0  0  0  0
 26 66  1  0  0  0  0
 26 67  1  0  0  0  0
 27 33  1  0  0  0  0
 28 68  1  0  0  0  0
 28 69  1  0  0  0  0
 28 70  1  0  0  0  0
 29 36  1  0  0  0  0
 29 71  1  0  0  0  0
 29 72  1  0  0  0  0
 31 38  2  0  0  0  0
 32 73  1  0  0  0  0
 32 74  1  0  0  0  0
 32 75  1  0  0  0  0
 33 35  2  3  0  0  0
 33 76  1  0  0  0  0
 34 35  1  0  0  0  0
 34 37  1  0  0  0  0
 34 42  1  0  0  0  0
 34 43  1  0  0  0  0
 36 46  1  0  0  0  0
 36 77  1  0  0  0  0
 36 78  1  0  0  0  0
 37 39  1  0  0  0  0
 37 44  1  0  0  0  0
 37 79  1  0  0  0  0
 38 40  1  0  0  0  0
 38 45  1  0  0  0  0
 39 49  2  3  0  0  0
 40 41  2  0  0  0  0
 40 48  1  0  0  0  0
 41 47  1  0  0  0  0
 42 53  1  0  0  0  0
 42 83  1  0  0  0  0
 42 84  1  0  0  0  0
 43 85  1  0  0  0  0
 43 86  1  0  0  0  0
 43 87  1  0  0  0  0
 44 50  1  0  0  0  0
 44 88  1  0  0  0  0
 44 89  1  0  0  0  0
 45 57  1  0  0  0  0
 45 90  1  0  0  0  0
 45 91  1  0  0  0  0
 47 51  1  0  0  0  0
 47 92  1  0  0  0  0
 47 93  1  0  0  0  0
 48 56  1  0  0  0  0
 48 94  1  0  0  0  0
 48 95  1  0  0  0  0
 49 52  1  0  0  0  0
 49 96  1  0  0  0  0
 50 58  1  0  0  0  0
 50 97  1  0  0  0  0
 50 98  1  0  0  0  0
 51 54  2  0  0  0  0
 52 55  2  0  0  0  0
 54 55  1  0  0  0  0
 54 59  1  0  0  0  0
 55 60  1  0  0  0  0
 56 61  1  0  0  0  0
 56100  1  0  0  0  0
 56101  1  0  0  0  0
 59 62  1  0  0  0  0
 59103  1  0  0  0  0
 59104  1  0  0  0  0
 60 63  1  0  0  0  0
 60105  1  0  0  0  0
 60106  1  0  0  0  0
 62 64  1  0  0  0  0
 62109  1  0  0  0  0
 62110  1  0  0  0  0
M  END
> <PUBCHEM_COMPOUND_CID>
518

> <PUBCHEM_COMPOUND_CANONICALIZED>
1

> <PUBCHEM_CACTVS_COMPLEXITY>
2070

> <PUBCHEM_CACTVS_HBOND_ACCEPTOR>
19

> <PUBCHEM_CACTVS_HBOND_DONOR>
11

> <PUBCHEM_CACTVS_ROTATABLE_BOND>
18

> <PUBCHEM_CACTVS_SUBSKEYS>
AAADcfB/vgAAAAAAAAAAAAAAAAAAAWLFiRAAAAAAAAAQAAAB4AAAHgAQCAAAD0yBngACiJLJlgCoAyTyTASCgCAhAiAAmSEwTJgLJnLA1ZGOcAhm0AHb2Ae+/fffgAAAAAAAAAAAAAAAAAAAAAAAAAAAAA==

> <PUBCHEM_IUPAC_OPENEYE_NAME>
3-[5,9,19-tris(2-carboxyethyl)-4,10,15-tris(carboxymethyl)-2-hydroxy-2,15,20-trimethyl-22-oxo-23-oxa-24,25,26,27-tetrazahexacyclo[16.5.1.13,6.18,11.113,16.01,20]heptacosa-3,5,8,10,12,16,18(24)-heptaen-14-yl]propanoic acid

> <PUBCHEM_IUPAC_CAS_NAME>
3-[5,9,19-tris(2-carboxyethyl)-4,10,15-tris(carboxymethyl)-2-hydroxy-2,15,20-trimethyl-22-oxo-23-oxa-24,25,26,27-tetrazahexacyclo[16.5.1.13,6.18,11.113,16.01,20]heptacosa-3,5,8,10,12,16,18(24)-heptaen-14-yl]propanoic acid

> <PUBCHEM_IUPAC_NAME_MARKUP>
3-[5,9,19-tris(2-carboxyethyl)-4,10,15-tris(carboxymethyl)-2-hydroxy-2,15,20-trimethyl-22-oxo-23-oxa-24,25,26,27-tetrazahexacyclo[16.5.1.1<SUP>3,6</SUP>.1<SUP>8,11</SUP>.1<SUP>13,16</SUP>.0<SUP>1,20</SUP>]heptacosa-3,5,8,10,12,16,18(24)-heptaen-14-yl]propanoic acid

> <PUBCHEM_IUPAC_NAME>
3-[5,9,19-tris(2-carboxyethyl)-4,10,15-tris(carboxymethyl)-2-hydroxy-2,15,20-trimethyl-22-oxo-23-oxa-24,25,26,27-tetrazahexacyclo[16.5.1.13,6.18,11.113,16.01,20]heptacosa-3,5,8,10,12,16,18(24)-heptaen-14-yl]propanoic acid

> <PUBCHEM_IUPAC_SYSTEMATIC_NAME>
3-[4,10,15-tris(2-hydroxy-2-oxoethyl)-5,9,19-tris(3-hydroxy-3-oxopropyl)-2,15,20-trimethyl-2-oxidanyl-22-oxidanylidene-23-oxa-24,25,26,27-tetrazahexacyclo[16.5.1.13,6.18,11.113,16.01,20]heptacosa-3,5,8,10,12,16,18(24)-heptaen-14-yl]propanoic acid

> <PUBCHEM_IUPAC_TRADITIONAL_NAME>
3-[5,9,19-tris(2-carboxyethyl)-4,10,15-tris(carboxymethyl)-2-hydroxy-22-keto-2,15,20-trimethyl-23-oxa-24,25,26,27-tetrazahexacyclo[16.5.1.13,6.18,11.113,16.01,20]heptacosa-3,5,8,10,12,16,18(24)-heptaen-14-yl]propionic acid

> <PUBCHEM_IUPAC_INCHI>
InChI=1S/C43H50N4O17/c1-40(17-37(60)61)23(6-10-33(52)53)28-15-27-21(12-35(56)57)19(4-8-31(48)49)25(44-27)14-26-20(5-9-32(50)51)22(13-36(58)59)39(46-26)42(3,63)43-41(2,18-38(62)64-43)24(7-11-34(54)55)29(47-43)16-30(40)45-28/h15-16,23-24,44-46,63H,4-14,17-18H2,1-3H3,(H,48,49)(H,50,51)(H,52,53)(H,54,55)(H,56,57)(H,58,59)(H,60,61)

> <PUBCHEM_IUPAC_INCHIKEY>
XJMAPDWWEYBIHV-UHFFFAOYSA-N

> <PUBCHEM_XLOGP3_AA>
-1

> <PUBCHEM_EXACT_MASS>
894.31709614

> <PUBCHEM_MOLECULAR_FORMULA>
C43H50N4O17

> <PUBCHEM_MOLECULAR_WEIGHT>
894.9

> <PUBCHEM_SMILES>
CC12CC(=O)OC13C(C4=C(C(=C(N4)CC5=C(C(=C(N5)C=C6C(C(C(=CC(=N3)C2CCC(=O)O)N6)(C)CC(=O)O)CCC(=O)O)CC(=O)O)CCC(=O)O)CCC(=O)O)CC(=O)O)(C)O

> <PUBCHEM_CONNECTIVITY_SMILES>
CC12CC(=O)OC13C(C4=C(C(=C(N4)CC5=C(C(=C(N5)C=C6C(C(C(=CC(=N3)C2CCC(=O)O)N6)(C)CC(=O)O)CCC(=O)O)CC(=O)O)CCC(=O)O)CCC(=O)O)CC(=O)O)(C)O

> <PUBCHEM_CACTVS_TPSA>
364

> <PUBCHEM_MONOISOTOPIC_WEIGHT>
894.31709614

> <PUBCHEM_TOTAL_CHARGE>
0

> <PUBCHEM_HEAVY_ATOM_COUNT>
64

> <PUBCHEM_ATOM_DEF_STEREO_COUNT>
0

> <PUBCHEM_ATOM_UDEF_STEREO_COUNT>
6

> <PUBCHEM_BOND_DEF_STEREO_COUNT>
0

> <PUBCHEM_BOND_UDEF_STEREO_COUNT>
2

> <PUBCHEM_ISOTOPIC_ATOM_COUNT>
0

> <PUBCHEM_COMPONENT_COUNT>
1

> <PUBCHEM_CACTVS_TAUTO_COUNT>
-1

> <PUBCHEM_COORDINATE_TYPE>
1
5
255

> <PUBCHEM_BONDANNOTATIONS>
19  31  8
19  41  8
21  51  8
21  52  8
23  22  3
22  28  3
24  29  3
25  32  3
31  38  8
33  35  1
34  43  3
37  44  3
38  40  8
39  49  1
40  41  8
51  54  8
52  55  8
54  55  8

$$$$
