667
  -OEChem-08152603042D

112116  0     1  0  0  0  0  0999 V2000
    6.7090    5.3944    0.0000 O   0  0  0  0  0  0  0  0  0  0  0  0
    5.8523    3.8891    0.0000 O   0  0  0  0  0  0  0  0  0  0  0  0
   13.6433    1.3836    0.0000 O   0  0  0  0  0  0  0  0  0  0  0  0
    8.9020    6.3499    0.0000 O   0  0  0  0  0  0  0  0  0  0  0  0
   12.1243    2.2160    0.0000 O   0  0  0  0  0  0  0  0  0  0  0  0
   10.3184    5.3530    0.0000 O   0  0  0  0  0  0  0  0  0  0  0  0
   12.5160   -3.7281    0.0000 O   0  0  0  0  0  0  0  0  0  0  0  0
   13.5587   -2.3451    0.0000 O   0  0  0  0  0  0  0  0  0  0  0  0
    2.5718    1.2531    0.0000 O   0  0  0  0  0  0  0  0  0  0  0  0
    3.2413   -0.3444    0.0000 O   0  0  0  0  0  0  0  0  0  0  0  0
   10.8045   -4.5103    0.0000 O   0  0  0  0  0  0  0  0  0  0  0  0
    3.3538   -3.5726    0.0000 O   0  0  0  0  0  0  0  0  0  0  0  0
   10.6128   -2.7889    0.0000 O   0  0  0  0  0  0  0  0  0  0  0  0
    2.4878   -2.0726    0.0000 O   0  0  0  0  0  0  0  0  0  0  0  0
    6.8964   -6.3970    0.0000 O   0  0  0  0  0  0  0  0  0  0  0  0
    5.6118   -5.2353    0.0000 O   0  0  0  0  0  0  0  0  0  0  0  0
    8.0910    1.2975    0.0000 N   0  0  0  0  0  0  0  0  0  0  0  0
    9.6263   -0.0720    0.0000 N   0  0  0  0  0  0  0  0  0  0  0  0
    6.6211   -0.0720    0.0000 N   0  0  0  0  0  0  0  0  0  0  0  0
    8.1245   -1.4415    0.0000 N   0  0  0  0  0  0  0  0  0  0  0  0
    7.5904    2.8997    0.0000 C   0  0  3  0  0  0  0  0  0  0  0  0
    8.5916    2.8997    0.0000 C   0  0  3  0  0  0  0  0  0  0  0  0
    7.2891    1.9320    0.0000 C   0  0  3  0  0  0  0  0  0  0  0  0
    8.9265    1.9655    0.0000 C   0  0  0  0  0  0  0  0  0  0  0  0
   11.1632    0.4621    0.0000 C   0  0  3  0  0  0  0  0  0  0  0  0
    7.5843    3.8997    0.0000 C   0  0  0  0  0  0  0  0  0  0  0  0
    9.1672    3.7175    0.0000 C   0  0  0  0  0  0  0  0  0  0  0  0
   11.1632   -0.5391    0.0000 C   0  0  3  0  0  0  0  0  0  0  0  0
    6.6375    3.2029    0.0000 C   0  0  0  0  0  0  0  0  0  0  0  0
    6.3214    1.6642    0.0000 C   0  0  0  0  0  0  0  0  0  0  0  0
   10.1938    0.7300    0.0000 C   0  0  0  0  0  0  0  0  0  0  0  0
    9.8942    1.6642    0.0000 C   0  0  0  0  0  0  0  0  0  0  0  0
   10.2273   -0.8069    0.0000 C   0  0  0  0  0  0  0  0  0  0  0  0
   12.1629    0.4844    0.0000 C   0  0  0  0  0  0  0  0  0  0  0  0
    6.0535    0.6965    0.0000 C   0  0  0  0  0  0  0  0  0  0  0  0
   11.9617   -1.1411    0.0000 C   0  0  0  0  0  0  0  0  0  0  0  0
   11.4509    1.4198    0.0000 C   0  0  0  0  0  0  0  0  0  0  0  0
    8.7468    4.6248    0.0000 C   0  0  0  0  0  0  0  0  0  0  0  0
    6.7152    4.3944    0.0000 C   0  0  0  0  0  0  0  0  0  0  0  0
    5.0858    0.4286    0.0000 C   0  0  0  0  0  0  0  0  0  0  0  0
    9.9276   -1.7746    0.0000 C   0  0  0  0  0  0  0  0  0  0  0  0
    6.0535   -0.8404    0.0000 C   0  0  0  0  0  0  0  0  0  0  0  0
   11.8396   -2.1336    0.0000 C   0  0  0  0  0  0  0  0  0  0  0  0
    5.0858   -0.5726    0.0000 C   0  0  0  0  0  0  0  0  0  0  0  0
   12.6435    1.3613    0.0000 C   0  0  0  0  0  0  0  0  0  0  0  0
    8.9265   -2.0425    0.0000 C   0  0  0  0  0  0  0  0  0  0  0  0
    6.3549   -1.7746    0.0000 C   0  0  0  0  0  0  0  0  0  0  0  0
    9.3224    5.4426    0.0000 C   0  0  0  0  0  0  0  0  0  0  0  0
    4.2900    1.0341    0.0000 C   0  0  0  0  0  0  0  0  0  0  0  0
    7.3226   -2.0760    0.0000 C   0  0  0  0  0  0  0  0  0  0  0  0
    4.2198   -1.0726    0.0000 C   0  0  0  0  0  0  0  0  0  0  0  0
    8.6251   -3.0102    0.0000 C   0  0  0  0  0  0  0  0  0  0  0  0
    7.6239   -3.0102    0.0000 C   0  0  0  0  0  0  0  0  0  0  0  0
   12.6381   -2.7356    0.0000 C   0  0  0  0  0  0  0  0  0  0  0  0
    6.9532   -3.7519    0.0000 C   0  0  0  0  0  0  0  0  0  0  0  0
    4.2198   -2.0726    0.0000 C   0  0  0  0  0  0  0  0  0  0  0  0
    9.2178   -3.8156    0.0000 C   0  0  0  0  0  0  0  0  0  0  0  0
    3.3677    0.6476    0.0000 C   0  0  0  0  0  0  0  0  0  0  0  0
    7.2602   -4.7036    0.0000 C   0  0  0  0  0  0  0  0  0  0  0  0
    3.3538   -2.5726    0.0000 C   0  0  0  0  0  0  0  0  0  0  0  0
   10.2117   -3.7049    0.0000 C   0  0  0  0  0  0  0  0  0  0  0  0
    6.5895   -5.4453    0.0000 C   0  0  0  0  0  0  0  0  0  0  0  0
    9.2060    2.8166    0.0000 H   0  0  0  0  0  0  0  0  0  0  0  0
    6.8577    2.3774    0.0000 H   0  0  0  0  0  0  0  0  0  0  0  0
    8.1955    3.7958    0.0000 H   0  0  0  0  0  0  0  0  0  0  0  0
    7.7928    4.4836    0.0000 H   0  0  0  0  0  0  0  0  0  0  0  0
    9.6045    3.2780    0.0000 H   0  0  0  0  0  0  0  0  0  0  0  0
    9.6759    4.0719    0.0000 H   0  0  0  0  0  0  0  0  0  0  0  0
   11.0500   -1.1486    0.0000 H   0  0  0  0  0  0  0  0  0  0  0  0
    6.8255    3.7937    0.0000 H   0  0  0  0  0  0  0  0  0  0  0  0
    6.0467    3.3908    0.0000 H   0  0  0  0  0  0  0  0  0  0  0  0
    6.4496    2.6121    0.0000 H   0  0  0  0  0  0  0  0  0  0  0  0
    6.2657    2.2817    0.0000 H   0  0  0  0  0  0  0  0  0  0  0  0
    5.7039    1.7199    0.0000 H   0  0  0  0  0  0  0  0  0  0  0  0
   10.3307    2.1044    0.0000 H   0  0  0  0  0  0  0  0  0  0  0  0
   12.0689   -0.1285    0.0000 H   0  0  0  0  0  0  0  0  0  0  0  0
   12.7501    0.2854    0.0000 H   0  0  0  0  0  0  0  0  0  0  0  0
    9.0066   -0.0935    0.0000 H   0  0  0  0  0  0  0  0  0  0  0  0
   12.5545   -1.3225    0.0000 H   0  0  0  0  0  0  0  0  0  0  0  0
   12.2433   -0.5887    0.0000 H   0  0  0  0  0  0  0  0  0  0  0  0
   12.0447    1.2414    0.0000 H   0  0  0  0  0  0  0  0  0  0  0  0
   11.6293    2.0136    0.0000 H   0  0  0  0  0  0  0  0  0  0  0  0
   10.8572    1.5982    0.0000 H   0  0  0  0  0  0  0  0  0  0  0  0
    8.3095    5.0643    0.0000 H   0  0  0  0  0  0  0  0  0  0  0  0
    8.2381    4.2704    0.0000 H   0  0  0  0  0  0  0  0  0  0  0  0
   10.3574   -2.2215    0.0000 H   0  0  0  0  0  0  0  0  0  0  0  0
    7.2411   -0.0720    0.0000 H   0  0  0  0  0  0  0  0  0  0  0  0
   11.2467   -1.9522    0.0000 H   0  0  0  0  0  0  0  0  0  0  0  0
   11.5580   -2.6860    0.0000 H   0  0  0  0  0  0  0  0  0  0  0  0
    5.7384   -1.8411    0.0000 H   0  0  0  0  0  0  0  0  0  0  0  0
    6.2947   -2.3917    0.0000 H   0  0  0  0  0  0  0  0  0  0  0  0
    4.7454    1.4548    0.0000 H   0  0  0  0  0  0  0  0  0  0  0  0
    3.9547    1.5556    0.0000 H   0  0  0  0  0  0  0  0  0  0  0  0
    4.0078   -0.4900    0.0000 H   0  0  0  0  0  0  0  0  0  0  0  0
    3.6092   -1.1802    0.0000 H   0  0  0  0  0  0  0  0  0  0  0  0
    8.1164   -0.8215    0.0000 H   0  0  0  0  0  0  0  0  0  0  0  0
    6.1702    5.7011    0.0000 H   0  0  0  0  0  0  0  0  0  0  0  0
    6.5725   -3.2625    0.0000 H   0  0  0  0  0  0  0  0  0  0  0  0
    6.4052   -4.0418    0.0000 H   0  0  0  0  0  0  0  0  0  0  0  0
    4.4319   -2.6552    0.0000 H   0  0  0  0  0  0  0  0  0  0  0  0
    4.8304   -1.9649    0.0000 H   0  0  0  0  0  0  0  0  0  0  0  0
    8.6623   -4.0908    0.0000 H   0  0  0  0  0  0  0  0  0  0  0  0
    9.3924   -4.4105    0.0000 H   0  0  0  0  0  0  0  0  0  0  0  0
   13.9412    1.9273    0.0000 H   0  0  0  0  0  0  0  0  0  0  0  0
    9.2588    6.8569    0.0000 H   0  0  0  0  0  0  0  0  0  0  0  0
    7.6408   -5.1930    0.0000 H   0  0  0  0  0  0  0  0  0  0  0  0
    7.8082   -4.4137    0.0000 H   0  0  0  0  0  0  0  0  0  0  0  0
   13.0110   -4.1014    0.0000 H   0  0  0  0  0  0  0  0  0  0  0  0
    2.0000    1.0134    0.0000 H   0  0  0  0  0  0  0  0  0  0  0  0
   11.4207   -4.4417    0.0000 H   0  0  0  0  0  0  0  0  0  0  0  0
    2.8169   -3.8826    0.0000 H   0  0  0  0  0  0  0  0  0  0  0  0
    6.4806   -6.8569    0.0000 H   0  0  0  0  0  0  0  0  0  0  0  0
  1 39  1  0  0  0  0
  1 97  1  0  0  0  0
  2 39  2  0  0  0  0
  3 45  1  0  0  0  0
  3104  1  0  0  0  0
  4 48  1  0  0  0  0
  4105  1  0  0  0  0
  5 45  2  0  0  0  0
  6 48  2  0  0  0  0
  7 54  1  0  0  0  0
  7108  1  0  0  0  0
  8 54  2  0  0  0  0
  9 58  1  0  0  0  0
  9109  1  0  0  0  0
 10 58  2  0  0  0  0
 11 61  1  0  0  0  0
 11110  1  0  0  0  0
 12 60  1  0  0  0  0
 12111  1  0  0  0  0
 13 61  2  0  0  0  0
 14 60  2  0  0  0  0
 15 62  1  0  0  0  0
 15112  1  0  0  0  0
 16 62  2  0  0  0  0
 17 23  1  0  0  0  0
 17 24  2  0  0  0  0
 18 31  1  0  0  0  0
 18 33  1  0  0  0  0
 18 78  1  0  0  0  0
 19 35  1  0  0  0  0
 19 42  1  0  0  0  0
 19 87  1  0  0  0  0
 20 46  1  0  0  0  0
 20 50  1  0  0  0  0
 20 96  1  0  0  0  0
 21 22  1  0  0  0  0
 21 23  1  0  0  0  0
 21 26  1  0  0  0  0
 21 29  1  0  0  0  0
 22 24  1  0  0  0  0
 22 27  1  0  0  0  0
 22 63  1  0  0  0  0
 23 30  1  0  0  0  0
 23 64  1  0  0  0  0
 24 32  1  0  0  0  0
 25 28  1  0  0  0  0
 25 31  1  0  0  0  0
 25 34  1  0  0  0  0
 25 37  1  0  0  0  0
 26 39  1  0  0  0  0
 26 65  1  0  0  0  0
 26 66  1  0  0  0  0
 27 38  1  0  0  0  0
 27 67  1  0  0  0  0
 27 68  1  0  0  0  0
 28 33  1  0  0  0  0
 28 36  1  0  0  0  0
 28 69  1  0  0  0  0
 29 70  1  0  0  0  0
 29 71  1  0  0  0  0
 29 72  1  0  0  0  0
 30 35  1  0  0  0  0
 30 73  1  0  0  0  0
 30 74  1  0  0  0  0
 31 32  2  3  0  0  0
 32 75  1  0  0  0  0
 33 41  2  3  0  0  0
 34 45  1  0  0  0  0
 34 76  1  0  0  0  0
 34 77  1  0  0  0  0
 35 40  2  0  0  0  0
 36 43  1  0  0  0  0
 36 79  1  0  0  0  0
 36 80  1  0  0  0  0
 37 81  1  0  0  0  0
 37 82  1  0  0  0  0
 37 83  1  0  0  0  0
 38 48  1  0  0  0  0
 38 84  1  0  0  0  0
 38 85  1  0  0  0  0
 40 44  1  0  0  0  0
 40 49  1  0  0  0  0
 41 46  1  0  0  0  0
 41 86  1  0  0  0  0
 42 44  2  0  0  0  0
 42 47  1  0  0  0  0
 43 54  1  0  0  0  0
 43 88  1  0  0  0  0
 43 89  1  0  0  0  0
 44 51  1  0  0  0  0
 46 52  2  0  0  0  0
 47 50  1  0  0  0  0
 47 90  1  0  0  0  0
 47 91  1  0  0  0  0
 49 58  1  0  0  0  0
 49 92  1  0  0  0  0
 49 93  1  0  0  0  0
 50 53  2  0  0  0  0
 51 56  1  0  0  0  0
 51 94  1  0  0  0  0
 51 95  1  0  0  0  0
 52 53  1  0  0  0  0
 52 57  1  0  0  0  0
 53 55  1  0  0  0  0
 55 59  1  0  0  0  0
 55 98  1  0  0  0  0
 55 99  1  0  0  0  0
 56 60  1  0  0  0  0
 56100  1  0  0  0  0
 56101  1  0  0  0  0
 57 61  1  0  0  0  0
 57102  1  0  0  0  0
 57103  1  0  0  0  0
 59 62  1  0  0  0  0
 59106  1  0  0  0  0
 59107  1  0  0  0  0
M  END
> <PUBCHEM_COMPOUND_CID>
667

> <PUBCHEM_COMPOUND_CANONICALIZED>
1

> <PUBCHEM_CACTVS_COMPLEXITY>
1910

> <PUBCHEM_CACTVS_HBOND_ACCEPTOR>
18

> <PUBCHEM_CACTVS_HBOND_DONOR>
11

> <PUBCHEM_CACTVS_ROTATABLE_BOND>
20

> <PUBCHEM_CACTVS_SUBSKEYS>
AAADcfB/vgAAAAAAAAAAAAAAAAAAAWLFiAAAAAAAAAAAAAAB4AAAHgAQCAAADyjBngQCiJLJkgCoAyTyTACCgCAhAiAAmSEwRJgIIHLA1ZGEYAhk0AHIyAe82fOfgAAAAAAAAAAAAAAAAAAAAAAAAAAAAA==

> <PUBCHEM_IUPAC_OPENEYE_NAME>
3-[7,13,17-tris(2-carboxyethyl)-3,8,12,18-tetrakis(carboxymethyl)-3,8-dimethyl-2,7,9,10,15,21,23,24-octahydroporphyrin-2-yl]propanoic acid

> <PUBCHEM_IUPAC_CAS_NAME>
3-[7,13,17-tris(2-carboxyethyl)-3,8,12,18-tetrakis(carboxymethyl)-3,8-dimethyl-2,7,9,10,15,21,23,24-octahydroporphyrin-2-yl]propanoic acid

> <PUBCHEM_IUPAC_NAME_MARKUP>
3-[7,13,17-tris(2-carboxyethyl)-3,8,12,18-tetrakis(carboxymethyl)-3,8-dimethyl-2,7,9,10,15,21,23,24-octahydroporphyrin-2-yl]propanoic acid

> <PUBCHEM_IUPAC_NAME>
3-[7,13,17-tris(2-carboxyethyl)-3,8,12,18-tetrakis(carboxymethyl)-3,8-dimethyl-2,7,9,10,15,21,23,24-octahydroporphyrin-2-yl]propanoic acid

> <PUBCHEM_IUPAC_SYSTEMATIC_NAME>
3-[3,8,12,18-tetrakis(2-hydroxy-2-oxoethyl)-7,13,17-tris(3-hydroxy-3-oxopropyl)-3,8-dimethyl-2,7,9,10,15,21,23,24-octahydroporphyrin-2-yl]propanoic acid

> <PUBCHEM_IUPAC_TRADITIONAL_NAME>
3-[7,13,17-tris(2-carboxyethyl)-3,8,12,18-tetrakis(carboxymethyl)-3,8-dimethyl-2,7,9,10,15,21,23,24-octahydroporphin-2-yl]propionic acid

> <PUBCHEM_IUPAC_INCHI>
InChI=1S/C42H50N4O16/c1-41(17-39(59)60)23(5-9-35(51)52)29-14-27-21(11-37(55)56)19(3-7-33(47)48)25(43-27)13-26-20(4-8-34(49)50)22(12-38(57)58)28(44-26)15-31-42(2,18-40(61)62)24(6-10-36(53)54)30(46-31)16-32(41)45-29/h14,16,23-24,31,43-45H,3-13,15,17-18H2,1-2H3,(H,47,48)(H,49,50)(H,51,52)(H,53,54)(H,55,56)(H,57,58)(H,59,60)(H,61,62)

> <PUBCHEM_IUPAC_INCHIKEY>
OZRBELAXOMTWMP-UHFFFAOYSA-N

> <PUBCHEM_XLOGP3_AA>
-0.1

> <PUBCHEM_EXACT_MASS>
866.32218152

> <PUBCHEM_MOLECULAR_FORMULA>
C42H50N4O16

> <PUBCHEM_MOLECULAR_WEIGHT>
866.9

> <PUBCHEM_SMILES>
CC1(C2CC3=C(C(=C(N3)CC4=C(C(=C(N4)C=C5C(C(C(=CC(=N2)C1CCC(=O)O)N5)(C)CC(=O)O)CCC(=O)O)CC(=O)O)CCC(=O)O)CCC(=O)O)CC(=O)O)CC(=O)O

> <PUBCHEM_CONNECTIVITY_SMILES>
CC1(C2CC3=C(C(=C(N3)CC4=C(C(=C(N4)C=C5C(C(C(=CC(=N2)C1CCC(=O)O)N5)(C)CC(=O)O)CCC(=O)O)CC(=O)O)CCC(=O)O)CCC(=O)O)CC(=O)O)CC(=O)O

> <PUBCHEM_CACTVS_TPSA>
354

> <PUBCHEM_MONOISOTOPIC_WEIGHT>
866.32218152

> <PUBCHEM_TOTAL_CHARGE>
0

> <PUBCHEM_HEAVY_ATOM_COUNT>
62

> <PUBCHEM_ATOM_DEF_STEREO_COUNT>
0

> <PUBCHEM_ATOM_UDEF_STEREO_COUNT>
5

> <PUBCHEM_BOND_DEF_STEREO_COUNT>
0

> <PUBCHEM_BOND_UDEF_STEREO_COUNT>
2

> <PUBCHEM_ISOTOPIC_ATOM_COUNT>
0

> <PUBCHEM_COMPONENT_COUNT>
1

> <PUBCHEM_CACTVS_TAUTO_COUNT>
-1

> <PUBCHEM_COORDINATE_TYPE>
1
5
255

> <PUBCHEM_BONDANNOTATIONS>
19  35  8
19  42  8
20  46  8
20  50  8
21  29  3
22  27  3
23  30  3
25  37  3
28  36  3
31  32  1
33  41  1
35  40  8
40  44  8
42  44  8
46  52  8
50  53  8
52  53  8

$$$$
