517
  -OEChem-08152602532D

113117  0     1  0  0  0  0  0999 V2000
    9.5557   -5.0789    0.0000 O   0  0  0  0  0  0  0  0  0  0  0  0
   10.4124   -3.5736    0.0000 O   0  0  0  0  0  0  0  0  0  0  0  0
   13.6924    1.8095    0.0000 O   0  0  0  0  0  0  0  0  0  0  0  0
   12.1735    2.6419    0.0000 O   0  0  0  0  0  0  0  0  0  0  0  0
    6.9456   -5.9712    0.0000 O   0  0  0  0  0  0  0  0  0  0  0  0
   14.6505   -0.5361    0.0000 O   0  0  0  0  0  0  0  0  0  0  0  0
    5.6609   -4.8094    0.0000 O   0  0  0  0  0  0  0  0  0  0  0  0
   13.6078   -1.9192    0.0000 O   0  0  0  0  0  0  0  0  0  0  0  0
    9.3716    5.8685    0.0000 O   0  0  0  0  0  0  0  0  0  0  0  0
    2.5369   -0.6467    0.0000 O   0  0  0  0  0  0  0  0  0  0  0  0
    7.8000    5.1403    0.0000 O   0  0  0  0  0  0  0  0  0  0  0  0
    3.4029    0.8533    0.0000 O   0  0  0  0  0  0  0  0  0  0  0  0
    5.8614    5.7418    0.0000 O   0  0  0  0  0  0  0  0  0  0  0  0
    2.7474    2.6709    0.0000 O   0  0  0  0  0  0  0  0  0  0  0  0
    4.4664    4.7151    0.0000 O   0  0  0  0  0  0  0  0  0  0  0  0
    3.7961    4.0494    0.0000 O   0  0  0  0  0  0  0  0  0  0  0  0
    8.1737   -1.0156    0.0000 N   0  0  0  0  0  0  0  0  0  0  0  0
    9.6754    0.3539    0.0000 N   0  0  0  0  0  0  0  0  0  0  0  0
    8.1402    1.7234    0.0000 N   0  0  0  0  0  0  0  0  0  0  0  0
    6.6702    0.3539    0.0000 N   0  0  0  0  0  0  0  0  0  0  0  0
    8.6743   -2.5843    0.0000 C   0  0  3  0  0  0  0  0  0  0  0  0
    7.6731   -2.5843    0.0000 C   0  0  3  0  0  0  0  0  0  0  0  0
   11.2124    0.8880    0.0000 C   0  0  3  0  0  0  0  0  0  0  0  0
   11.2124   -0.1132    0.0000 C   0  0  3  0  0  0  0  0  0  0  0  0
    8.9756   -1.6166    0.0000 C   0  0  0  0  0  0  0  0  0  0  0  0
   10.2765   -0.3810    0.0000 C   0  0  0  0  0  0  0  0  0  0  0  0
    7.3717   -1.6501    0.0000 C   0  0  0  0  0  0  0  0  0  0  0  0
    8.6804   -3.5843    0.0000 C   0  0  0  0  0  0  0  0  0  0  0  0
   10.2430    1.1559    0.0000 C   0  0  0  0  0  0  0  0  0  0  0  0
    7.0024   -3.3260    0.0000 C   0  0  0  0  0  0  0  0  0  0  0  0
    9.9768   -1.3487    0.0000 C   0  0  0  0  0  0  0  0  0  0  0  0
    9.6272   -2.8875    0.0000 C   0  0  0  0  0  0  0  0  0  0  0  0
   12.0109   -0.7152    0.0000 C   0  0  0  0  0  0  0  0  0  0  0  0
   12.2121    0.9103    0.0000 C   0  0  0  0  0  0  0  0  0  0  0  0
   11.5001    1.8457    0.0000 C   0  0  0  0  0  0  0  0  0  0  0  0
    9.9433    2.0901    0.0000 C   0  0  0  0  0  0  0  0  0  0  0  0
    6.4040   -1.3487    0.0000 C   0  0  0  0  0  0  0  0  0  0  0  0
    7.3094   -4.2777    0.0000 C   0  0  0  0  0  0  0  0  0  0  0  0
   12.9314   -0.3247    0.0000 C   0  0  0  0  0  0  0  0  0  0  0  0
    9.5495   -4.0789    0.0000 C   0  0  0  0  0  0  0  0  0  0  0  0
    8.9756    2.3914    0.0000 C   0  0  0  0  0  0  0  0  0  0  0  0
    6.1027   -0.4145    0.0000 C   0  0  0  0  0  0  0  0  0  0  0  0
   12.6927    1.7872    0.0000 C   0  0  0  0  0  0  0  0  0  0  0  0
   10.6782    2.7683    0.0000 C   0  0  0  0  0  0  0  0  0  0  0  0
    8.6408    3.3256    0.0000 C   0  0  0  0  0  0  0  0  0  0  0  0
    7.3383    2.3579    0.0000 C   0  0  0  0  0  0  0  0  0  0  0  0
    5.1350   -0.1467    0.0000 C   0  0  0  0  0  0  0  0  0  0  0  0
    6.1027    1.1224    0.0000 C   0  0  0  0  0  0  0  0  0  0  0  0
    7.6396    3.3256    0.0000 C   0  0  0  0  0  0  0  0  0  0  0  0
    6.3706    2.0901    0.0000 C   0  0  0  0  0  0  0  0  0  0  0  0
    5.1350    0.8545    0.0000 C   0  0  0  0  0  0  0  0  0  0  0  0
    6.6386   -5.0194    0.0000 C   0  0  0  0  0  0  0  0  0  0  0  0
   13.7299   -0.9267    0.0000 C   0  0  0  0  0  0  0  0  0  0  0  0
    9.2164    4.1434    0.0000 C   0  0  0  0  0  0  0  0  0  0  0  0
    7.0469    4.1310    0.0000 C   0  0  0  0  0  0  0  0  0  0  0  0
    4.2690   -0.6467    0.0000 C   0  0  0  0  0  0  0  0  0  0  0  0
    4.3391    1.4600    0.0000 C   0  0  0  0  0  0  0  0  0  0  0  0
    6.0530    4.0204    0.0000 C   0  0  0  0  0  0  0  0  0  0  0  0
    4.4656    2.4520    0.0000 C   0  0  0  0  0  0  0  0  0  0  0  0
    8.7960    5.0507    0.0000 C   0  0  0  0  0  0  0  0  0  0  0  0
    3.4030   -0.1467    0.0000 C   0  0  0  0  0  0  0  0  0  0  0  0
    5.4602    4.8258    0.0000 C   0  0  0  0  0  0  0  0  0  0  0  0
    3.6697    3.0574    0.0000 C   0  0  0  0  0  0  0  0  0  0  0  0
    7.9247   -3.1510    0.0000 H   0  0  0  0  0  0  0  0  0  0  0  0
   11.0992   -0.7228    0.0000 H   0  0  0  0  0  0  0  0  0  0  0  0
    8.0692   -3.4804    0.0000 H   0  0  0  0  0  0  0  0  0  0  0  0
    8.4720   -4.1682    0.0000 H   0  0  0  0  0  0  0  0  0  0  0  0
    6.6217   -2.8366    0.0000 H   0  0  0  0  0  0  0  0  0  0  0  0
    6.4543   -3.6159    0.0000 H   0  0  0  0  0  0  0  0  0  0  0  0
   10.4066   -1.7956    0.0000 H   0  0  0  0  0  0  0  0  0  0  0  0
    8.1656   -0.3956    0.0000 H   0  0  0  0  0  0  0  0  0  0  0  0
    9.4392   -3.4783    0.0000 H   0  0  0  0  0  0  0  0  0  0  0  0
   10.2180   -3.0754    0.0000 H   0  0  0  0  0  0  0  0  0  0  0  0
    9.8152   -2.2966    0.0000 H   0  0  0  0  0  0  0  0  0  0  0  0
   11.5573   -1.1379    0.0000 H   0  0  0  0  0  0  0  0  0  0  0  0
   12.3484   -1.2352    0.0000 H   0  0  0  0  0  0  0  0  0  0  0  0
   12.1181    0.2974    0.0000 H   0  0  0  0  0  0  0  0  0  0  0  0
   12.7993    0.7113    0.0000 H   0  0  0  0  0  0  0  0  0  0  0  0
   12.0939    1.6673    0.0000 H   0  0  0  0  0  0  0  0  0  0  0  0
   11.6785    2.4395    0.0000 H   0  0  0  0  0  0  0  0  0  0  0  0
   10.9063    2.0241    0.0000 H   0  0  0  0  0  0  0  0  0  0  0  0
    5.9679   -1.7894    0.0000 H   0  0  0  0  0  0  0  0  0  0  0  0
    7.6900   -4.7671    0.0000 H   0  0  0  0  0  0  0  0  0  0  0  0
    7.8574   -3.9878    0.0000 H   0  0  0  0  0  0  0  0  0  0  0  0
   13.3850    0.0981    0.0000 H   0  0  0  0  0  0  0  0  0  0  0  0
   12.5939    0.1954    0.0000 H   0  0  0  0  0  0  0  0  0  0  0  0
   11.0987    2.3127    0.0000 H   0  0  0  0  0  0  0  0  0  0  0  0
   11.1338    3.1888    0.0000 H   0  0  0  0  0  0  0  0  0  0  0  0
   10.2577    3.2239    0.0000 H   0  0  0  0  0  0  0  0  0  0  0  0
    8.1418    1.1034    0.0000 H   0  0  0  0  0  0  0  0  0  0  0  0
    6.3148    2.7076    0.0000 H   0  0  0  0  0  0  0  0  0  0  0  0
    5.7531    2.1458    0.0000 H   0  0  0  0  0  0  0  0  0  0  0  0
    7.2902    0.3539    0.0000 H   0  0  0  0  0  0  0  0  0  0  0  0
    9.6537    3.7039    0.0000 H   0  0  0  0  0  0  0  0  0  0  0  0
    9.7251    4.4978    0.0000 H   0  0  0  0  0  0  0  0  0  0  0  0
    7.6024    4.4062    0.0000 H   0  0  0  0  0  0  0  0  0  0  0  0
    6.8723    4.7259    0.0000 H   0  0  0  0  0  0  0  0  0  0  0  0
    3.8705   -1.1216    0.0000 H   0  0  0  0  0  0  0  0  0  0  0  0
    4.6675   -1.1216    0.0000 H   0  0  0  0  0  0  0  0  0  0  0  0
    3.7471    1.6440    0.0000 H   0  0  0  0  0  0  0  0  0  0  0  0
    4.0551    0.9089    0.0000 H   0  0  0  0  0  0  0  0  0  0  0  0
   10.0945   -5.3856    0.0000 H   0  0  0  0  0  0  0  0  0  0  0  0
   13.9904    2.3532    0.0000 H   0  0  0  0  0  0  0  0  0  0  0  0
    5.4974    3.7452    0.0000 H   0  0  0  0  0  0  0  0  0  0  0  0
    6.2276    3.4254    0.0000 H   0  0  0  0  0  0  0  0  0  0  0  0
    5.0576    2.2680    0.0000 H   0  0  0  0  0  0  0  0  0  0  0  0
    4.7496    3.0031    0.0000 H   0  0  0  0  0  0  0  0  0  0  0  0
    6.5298   -6.4310    0.0000 H   0  0  0  0  0  0  0  0  0  0  0  0
   15.1456   -0.9094    0.0000 H   0  0  0  0  0  0  0  0  0  0  0  0
    9.1109    6.4310    0.0000 H   0  0  0  0  0  0  0  0  0  0  0  0
    2.0000   -0.3367    0.0000 H   0  0  0  0  0  0  0  0  0  0  0  0
    5.4938    6.2411    0.0000 H   0  0  0  0  0  0  0  0  0  0  0  0
    2.2540    3.0463    0.0000 H   0  0  0  0  0  0  0  0  0  0  0  0
  1 40  1  0  0  0  0
  1102  1  0  0  0  0
  2 40  2  0  0  0  0
  3 43  1  0  0  0  0
  3103  1  0  0  0  0
  4 43  2  0  0  0  0
  5 52  1  0  0  0  0
  5108  1  0  0  0  0
  6 53  1  0  0  0  0
  6109  1  0  0  0  0
  7 52  2  0  0  0  0
  8 53  2  0  0  0  0
  9 60  1  0  0  0  0
  9110  1  0  0  0  0
 10 61  1  0  0  0  0
 10111  1  0  0  0  0
 11 60  2  0  0  0  0
 12 61  2  0  0  0  0
 13 62  1  0  0  0  0
 13112  1  0  0  0  0
 14 63  1  0  0  0  0
 14113  1  0  0  0  0
 15 62  2  0  0  0  0
 16 63  2  0  0  0  0
 17 25  1  0  0  0  0
 17 27  1  0  0  0  0
 17 71  1  0  0  0  0
 18 26  2  0  0  0  0
 18 29  1  0  0  0  0
 19 41  1  0  0  0  0
 19 46  1  0  0  0  0
 19 90  1  0  0  0  0
 20 42  1  0  0  0  0
 20 48  1  0  0  0  0
 20 93  1  0  0  0  0
 21 22  1  0  0  0  0
 21 25  1  0  0  0  0
 21 28  1  0  0  0  0
 21 32  1  0  0  0  0
 22 27  1  0  0  0  0
 22 30  1  0  0  0  0
 22 64  1  0  0  0  0
 23 24  1  0  0  0  0
 23 29  1  0  0  0  0
 23 34  1  0  0  0  0
 23 35  1  0  0  0  0
 24 26  1  0  0  0  0
 24 33  1  0  0  0  0
 24 65  1  0  0  0  0
 25 31  2  3  0  0  0
 26 31  1  0  0  0  0
 27 37  2  3  0  0  0
 28 40  1  0  0  0  0
 28 66  1  0  0  0  0
 28 67  1  0  0  0  0
 29 36  2  3  0  0  0
 30 38  1  0  0  0  0
 30 68  1  0  0  0  0
 30 69  1  0  0  0  0
 31 70  1  0  0  0  0
 32 72  1  0  0  0  0
 32 73  1  0  0  0  0
 32 74  1  0  0  0  0
 33 39  1  0  0  0  0
 33 75  1  0  0  0  0
 33 76  1  0  0  0  0
 34 43  1  0  0  0  0
 34 77  1  0  0  0  0
 34 78  1  0  0  0  0
 35 79  1  0  0  0  0
 35 80  1  0  0  0  0
 35 81  1  0  0  0  0
 36 41  1  0  0  0  0
 36 44  1  0  0  0  0
 37 42  1  0  0  0  0
 37 82  1  0  0  0  0
 38 52  1  0  0  0  0
 38 83  1  0  0  0  0
 38 84  1  0  0  0  0
 39 53  1  0  0  0  0
 39 85  1  0  0  0  0
 39 86  1  0  0  0  0
 41 45  2  0  0  0  0
 42 47  2  0  0  0  0
 44 87  1  0  0  0  0
 44 88  1  0  0  0  0
 44 89  1  0  0  0  0
 45 49  1  0  0  0  0
 45 54  1  0  0  0  0
 46 49  2  0  0  0  0
 46 50  1  0  0  0  0
 47 51  1  0  0  0  0
 47 56  1  0  0  0  0
 48 50  1  0  0  0  0
 48 51  2  0  0  0  0
 49 55  1  0  0  0  0
 50 91  1  0  0  0  0
 50 92  1  0  0  0  0
 51 57  1  0  0  0  0
 54 60  1  0  0  0  0
 54 94  1  0  0  0  0
 54 95  1  0  0  0  0
 55 58  1  0  0  0  0
 55 96  1  0  0  0  0
 55 97  1  0  0  0  0
 56 61  1  0  0  0  0
 56 98  1  0  0  0  0
 56 99  1  0  0  0  0
 57 59  1  0  0  0  0
 57100  1  0  0  0  0
 57101  1  0  0  0  0
 58 62  1  0  0  0  0
 58104  1  0  0  0  0
 58105  1  0  0  0  0
 59 63  1  0  0  0  0
 59106  1  0  0  0  0
 59107  1  0  0  0  0
M  END
> <PUBCHEM_COMPOUND_CID>
517

> <PUBCHEM_COMPOUND_CANONICALIZED>
1

> <PUBCHEM_CACTVS_COMPLEXITY>
2030

> <PUBCHEM_CACTVS_HBOND_ACCEPTOR>
18

> <PUBCHEM_CACTVS_HBOND_DONOR>
11

> <PUBCHEM_CACTVS_ROTATABLE_BOND>
20

> <PUBCHEM_CACTVS_SUBSKEYS>
AAADcfB/vgAAAAAAAAAAAAAAAAAAAWLFiAAAAAAAAAAAAAAB4AAAHgAQCAAADwiBngACiJLJkgCoAyTyTACCgCAhAiAAmSEwRJgIIHLA1ZGEYAhk0AHIyAe82fOfgAAAAAAAAAAAAAAAAAAAAAAAAAAAAA==

> <PUBCHEM_IUPAC_OPENEYE_NAME>
3-[7,13,17-tris(2-carboxyethyl)-3,8,12,18-tetrakis(carboxymethyl)-3,8,10-trimethyl-2,7,15,21,23,24-hexahydroporphyrin-2-yl]propanoic acid

> <PUBCHEM_IUPAC_CAS_NAME>
3-[7,13,17-tris(2-carboxyethyl)-3,8,12,18-tetrakis(carboxymethyl)-3,8,10-trimethyl-2,7,15,21,23,24-hexahydroporphyrin-2-yl]propanoic acid

> <PUBCHEM_IUPAC_NAME_MARKUP>
3-[7,13,17-tris(2-carboxyethyl)-3,8,12,18-tetrakis(carboxymethyl)-3,8,10-trimethyl-2,7,15,21,23,24-hexahydroporphyrin-2-yl]propanoic acid

> <PUBCHEM_IUPAC_NAME>
3-[7,13,17-tris(2-carboxyethyl)-3,8,12,18-tetrakis(carboxymethyl)-3,8,10-trimethyl-2,7,15,21,23,24-hexahydroporphyrin-2-yl]propanoic acid

> <PUBCHEM_IUPAC_SYSTEMATIC_NAME>
3-[3,8,12,18-tetrakis(2-hydroxy-2-oxoethyl)-7,13,17-tris(3-hydroxy-3-oxopropyl)-3,8,10-trimethyl-2,7,15,21,23,24-hexahydroporphyrin-2-yl]propanoic acid

> <PUBCHEM_IUPAC_TRADITIONAL_NAME>
3-[7,13,17-tris(2-carboxyethyl)-3,8,12,18-tetrakis(carboxymethyl)-3,8,10-trimethyl-2,7,15,21,23,24-hexahydroporphin-2-yl]propionic acid

> <PUBCHEM_IUPAC_INCHI>
InChI=1S/C43H50N4O16/c1-19-40-23(13-37(58)59)21(5-9-33(50)51)27(46-40)14-26-20(4-8-32(48)49)22(12-36(56)57)28(44-26)15-29-24(6-10-34(52)53)42(2,17-38(60)61)31(45-29)16-30-25(7-11-35(54)55)43(3,18-39(62)63)41(19)47-30/h15-16,24-25,44-46H,4-14,17-18H2,1-3H3,(H,48,49)(H,50,51)(H,52,53)(H,54,55)(H,56,57)(H,58,59)(H,60,61)(H,62,63)

> <PUBCHEM_IUPAC_INCHIKEY>
VNBNVFSXZUYRKF-UHFFFAOYSA-N

> <PUBCHEM_XLOGP3_AA>
0

> <PUBCHEM_EXACT_MASS>
878.32218152

> <PUBCHEM_MOLECULAR_FORMULA>
C43H50N4O16

> <PUBCHEM_MOLECULAR_WEIGHT>
878.9

> <PUBCHEM_SMILES>
CC1=C2C(C(C(=N2)C=C3C(C(C(=CC4=C(C(=C(N4)CC5=C(C(=C1N5)CC(=O)O)CCC(=O)O)CCC(=O)O)CC(=O)O)N3)CCC(=O)O)(C)CC(=O)O)CCC(=O)O)(C)CC(=O)O

> <PUBCHEM_CONNECTIVITY_SMILES>
CC1=C2C(C(C(=N2)C=C3C(C(C(=CC4=C(C(=C(N4)CC5=C(C(=C1N5)CC(=O)O)CCC(=O)O)CCC(=O)O)CC(=O)O)N3)CCC(=O)O)(C)CC(=O)O)CCC(=O)O)(C)CC(=O)O

> <PUBCHEM_CACTVS_TPSA>
354

> <PUBCHEM_MONOISOTOPIC_WEIGHT>
878.32218152

> <PUBCHEM_TOTAL_CHARGE>
0

> <PUBCHEM_HEAVY_ATOM_COUNT>
63

> <PUBCHEM_ATOM_DEF_STEREO_COUNT>
0

> <PUBCHEM_ATOM_UDEF_STEREO_COUNT>
4

> <PUBCHEM_BOND_DEF_STEREO_COUNT>
0

> <PUBCHEM_BOND_UDEF_STEREO_COUNT>
3

> <PUBCHEM_ISOTOPIC_ATOM_COUNT>
0

> <PUBCHEM_COMPONENT_COUNT>
1

> <PUBCHEM_CACTVS_TAUTO_COUNT>
-1

> <PUBCHEM_COORDINATE_TYPE>
1
5
255

> <PUBCHEM_BONDANNOTATIONS>
19  41  8
19  46  8
20  42  8
20  48  8
21  32  3
22  30  3
23  35  3
24  33  3
25  31  1
27  37  1
29  36  1
41  45  8
42  47  8
45  49  8
46  49  8
47  51  8
48  51  8

$$$$
