395
  -OEChem-08152602432D

117121  0     1  0  0  0  0  0999 V2000
    8.3140    3.6149    0.0000 S   0  0  0  0  0  0  0  0  0  0  0  0
   13.7965   -0.3248    0.0000 S   0  0  0  0  0  0  0  0  0  0  0  0
    2.5369   -1.5789    0.0000 O   0  0  0  0  0  0  0  0  0  0  0  0
    3.4030   -3.0788    0.0000 O   0  0  0  0  0  0  0  0  0  0  0  0
    7.8116   -7.4033    0.0000 O   0  0  0  0  0  0  0  0  0  0  0  0
    6.5357    6.0311    0.0000 O   0  0  0  0  0  0  0  0  0  0  0  0
    6.5270   -6.2416    0.0000 O   0  0  0  0  0  0  0  0  0  0  0  0
   16.1836    1.4922    0.0000 O   0  0  0  0  0  0  0  0  0  0  0  0
    9.0062    0.2913    0.0000 N   0  0  0  0  0  0  0  0  0  0  0  0
    7.5363   -1.0782    0.0000 N   0  0  0  0  0  0  0  0  0  0  0  0
   10.5415   -1.0782    0.0000 N   0  0  0  0  0  0  0  0  0  0  0  0
    9.0397   -2.4477    0.0000 N   0  0  0  0  0  0  0  0  0  0  0  0
    9.1162    5.4470    0.0000 N   0  0  0  0  0  0  0  0  0  0  0  0
   15.6412   -1.0973    0.0000 N   0  0  0  0  0  0  0  0  0  0  0  0
    7.9307    7.0578    0.0000 N   0  0  0  0  0  0  0  0  0  0  0  0
   17.2327    0.1140    0.0000 N   0  0  0  0  0  0  0  0  0  0  0  0
    8.2043    0.9258    0.0000 C   0  0  3  0  0  0  0  0  0  0  0  0
    8.5056    1.8935    0.0000 C   0  0  0  0  0  0  0  0  0  0  0  0
    9.5068    1.8935    0.0000 C   0  0  0  0  0  0  0  0  0  0  0  0
    7.9129    2.6989    0.0000 C   0  0  3  0  0  0  0  0  0  0  0  0
    9.8417    0.9593    0.0000 C   0  0  0  0  0  0  0  0  0  0  0  0
    7.2366    0.6579    0.0000 C   0  0  0  0  0  0  0  0  0  0  0  0
    6.9687   -0.3097    0.0000 C   0  0  0  0  0  0  0  0  0  0  0  0
   11.1090   -0.2763    0.0000 C   0  0  0  0  0  0  0  0  0  0  0  0
   12.0784   -0.5441    0.0000 C   0  0  0  0  0  0  0  0  0  0  0  0
   10.0824    2.7113    0.0000 C   0  0  0  0  0  0  0  0  0  0  0  0
    6.0010   -1.5788    0.0000 C   0  0  0  0  0  0  0  0  0  0  0  0
    6.0010   -0.5776    0.0000 C   0  0  0  0  0  0  0  0  0  0  0  0
    6.9687   -1.8467    0.0000 C   0  0  0  0  0  0  0  0  0  0  0  0
   10.8093    0.6579    0.0000 C   0  0  0  0  0  0  0  0  0  0  0  0
   12.0784   -1.5453    0.0000 C   0  0  0  0  0  0  0  0  0  0  0  0
   11.1425   -1.8132    0.0000 C   0  0  0  0  0  0  0  0  0  0  0  0
   12.8741    0.0615    0.0000 C   0  0  3  0  0  0  0  0  0  0  0  0
    8.2378   -3.0822    0.0000 C   0  0  0  0  0  0  0  0  0  0  0  0
    8.5391   -4.0164    0.0000 C   0  0  0  0  0  0  0  0  0  0  0  0
    9.8417   -3.0487    0.0000 C   0  0  0  0  0  0  0  0  0  0  0  0
    6.9190    2.5882    0.0000 C   0  0  0  0  0  0  0  0  0  0  0  0
    9.5403   -4.0164    0.0000 C   0  0  0  0  0  0  0  0  0  0  0  0
    7.2701   -2.7809    0.0000 C   0  0  0  0  0  0  0  0  0  0  0  0
    5.1350   -2.0788    0.0000 C   0  0  0  0  0  0  0  0  0  0  0  0
   10.8428   -2.7809    0.0000 C   0  0  0  0  0  0  0  0  0  0  0  0
    9.6620    3.6186    0.0000 C   0  0  0  0  0  0  0  0  0  0  0  0
    7.8684   -4.7581    0.0000 C   0  0  0  0  0  0  0  0  0  0  0  0
    5.2052    0.0279    0.0000 C   0  0  0  0  0  0  0  0  0  0  0  0
   12.8769   -2.1473    0.0000 C   0  0  0  0  0  0  0  0  0  0  0  0
    7.7212    4.4203    0.0000 C   0  0  0  0  0  0  0  0  0  0  0  0
   12.7474    1.0535    0.0000 C   0  0  0  0  0  0  0  0  0  0  0  0
    4.2690   -1.5788    0.0000 C   0  0  0  0  0  0  0  0  0  0  0  0
   10.1330   -4.8218    0.0000 C   0  0  0  0  0  0  0  0  0  0  0  0
    8.1754   -5.7099    0.0000 C   0  0  0  0  0  0  0  0  0  0  0  0
    8.1224    5.3363    0.0000 C   0  0  3  0  0  0  0  0  0  0  0  0
   14.5922    0.2809    0.0000 C   0  0  0  0  0  0  0  0  0  0  0  0
   15.5146   -0.1054    0.0000 C   0  0  3  0  0  0  0  0  0  0  0  0
    3.4030   -2.0788    0.0000 C   0  0  0  0  0  0  0  0  0  0  0  0
    7.5296    6.1417    0.0000 C   0  0  0  0  0  0  0  0  0  0  0  0
    7.5047   -6.4516    0.0000 C   0  0  0  0  0  0  0  0  0  0  0  0
   16.3103    0.5003    0.0000 C   0  0  0  0  0  0  0  0  0  0  0  0
    7.3379    7.8631    0.0000 C   0  0  0  0  0  0  0  0  0  0  0  0
   18.0284    0.7197    0.0000 C   0  0  0  0  0  0  0  0  0  0  0  0
    7.7729    1.3712    0.0000 H   0  0  0  0  0  0  0  0  0  0  0  0
    7.5454    3.1982    0.0000 H   0  0  0  0  0  0  0  0  0  0  0  0
    6.7982    1.0964    0.0000 H   0  0  0  0  0  0  0  0  0  0  0  0
   10.5197    2.2718    0.0000 H   0  0  0  0  0  0  0  0  0  0  0  0
   10.5911    3.0656    0.0000 H   0  0  0  0  0  0  0  0  0  0  0  0
   11.2459    1.0982    0.0000 H   0  0  0  0  0  0  0  0  0  0  0  0
    8.1563   -1.0782    0.0000 H   0  0  0  0  0  0  0  0  0  0  0  0
   13.3674    0.4370    0.0000 H   0  0  0  0  0  0  0  0  0  0  0  0
    9.9218   -1.0998    0.0000 H   0  0  0  0  0  0  0  0  0  0  0  0
    6.8504    3.2044    0.0000 H   0  0  0  0  0  0  0  0  0  0  0  0
    6.3028    2.5196    0.0000 H   0  0  0  0  0  0  0  0  0  0  0  0
    6.9876    1.9721    0.0000 H   0  0  0  0  0  0  0  0  0  0  0  0
    6.8339   -3.2215    0.0000 H   0  0  0  0  0  0  0  0  0  0  0  0
    4.7365   -2.5538    0.0000 H   0  0  0  0  0  0  0  0  0  0  0  0
    5.5336   -2.5537    0.0000 H   0  0  0  0  0  0  0  0  0  0  0  0
   11.2726   -3.2277    0.0000 H   0  0  0  0  0  0  0  0  0  0  0  0
    9.0316   -1.8278    0.0000 H   0  0  0  0  0  0  0  0  0  0  0  0
   10.2246    3.8792    0.0000 H   0  0  0  0  0  0  0  0  0  0  0  0
    9.4014    4.1811    0.0000 H   0  0  0  0  0  0  0  0  0  0  0  0
    9.0995    3.3580    0.0000 H   0  0  0  0  0  0  0  0  0  0  0  0
    7.4877   -4.2688    0.0000 H   0  0  0  0  0  0  0  0  0  0  0  0
    7.3204   -5.0480    0.0000 H   0  0  0  0  0  0  0  0  0  0  0  0
    5.5806    0.5213    0.0000 H   0  0  0  0  0  0  0  0  0  0  0  0
    4.7117    0.4033    0.0000 H   0  0  0  0  0  0  0  0  0  0  0  0
    4.8298   -0.4656    0.0000 H   0  0  0  0  0  0  0  0  0  0  0  0
   12.5036   -2.6424    0.0000 H   0  0  0  0  0  0  0  0  0  0  0  0
   13.3719   -2.5206    0.0000 H   0  0  0  0  0  0  0  0  0  0  0  0
   13.2501   -1.6522    0.0000 H   0  0  0  0  0  0  0  0  0  0  0  0
    7.2051    4.7638    0.0000 H   0  0  0  0  0  0  0  0  0  0  0  0
    7.2933    3.9717    0.0000 H   0  0  0  0  0  0  0  0  0  0  0  0
   13.3624    1.1320    0.0000 H   0  0  0  0  0  0  0  0  0  0  0  0
   12.6689    1.6685    0.0000 H   0  0  0  0  0  0  0  0  0  0  0  0
   12.1324    0.9749    0.0000 H   0  0  0  0  0  0  0  0  0  0  0  0
    4.6675   -1.1039    0.0000 H   0  0  0  0  0  0  0  0  0  0  0  0
    3.8704   -1.1039    0.0000 H   0  0  0  0  0  0  0  0  0  0  0  0
    9.6337   -5.1893    0.0000 H   0  0  0  0  0  0  0  0  0  0  0  0
   10.5005   -5.3212    0.0000 H   0  0  0  0  0  0  0  0  0  0  0  0
   10.6324   -4.4543    0.0000 H   0  0  0  0  0  0  0  0  0  0  0  0
    8.5560   -6.1992    0.0000 H   0  0  0  0  0  0  0  0  0  0  0  0
    8.7234   -5.4200    0.0000 H   0  0  0  0  0  0  0  0  0  0  0  0
    8.4899    4.8370    0.0000 H   0  0  0  0  0  0  0  0  0  0  0  0
   14.9274    0.8025    0.0000 H   0  0  0  0  0  0  0  0  0  0  0  0
   14.1367    0.7016    0.0000 H   0  0  0  0  0  0  0  0  0  0  0  0
   15.0212   -0.4809    0.0000 H   0  0  0  0  0  0  0  0  0  0  0  0
    9.3649    6.0149    0.0000 H   0  0  0  0  0  0  0  0  0  0  0  0
    9.4837    4.9477    0.0000 H   0  0  0  0  0  0  0  0  0  0  0  0
   16.2131   -1.3368    0.0000 H   0  0  0  0  0  0  0  0  0  0  0  0
   15.1479   -1.4728    0.0000 H   0  0  0  0  0  0  0  0  0  0  0  0
    8.5469    7.1264    0.0000 H   0  0  0  0  0  0  0  0  0  0  0  0
    2.0000   -1.8889    0.0000 H   0  0  0  0  0  0  0  0  0  0  0  0
    7.3958   -7.8631    0.0000 H   0  0  0  0  0  0  0  0  0  0  0  0
   17.3112   -0.5010    0.0000 H   0  0  0  0  0  0  0  0  0  0  0  0
    7.8373    8.2306    0.0000 H   0  0  0  0  0  0  0  0  0  0  0  0
    6.9704    8.3625    0.0000 H   0  0  0  0  0  0  0  0  0  0  0  0
    6.8386    7.4956    0.0000 H   0  0  0  0  0  0  0  0  0  0  0  0
   18.4039    0.2263    0.0000 H   0  0  0  0  0  0  0  0  0  0  0  0
   18.5218    1.0952    0.0000 H   0  0  0  0  0  0  0  0  0  0  0  0
   17.6529    1.2130    0.0000 H   0  0  0  0  0  0  0  0  0  0  0  0
  1 20  1  0  0  0  0
  1 46  1  0  0  0  0
  2 33  1  0  0  0  0
  2 52  1  0  0  0  0
  3 54  1  0  0  0  0
  3109  1  0  0  0  0
  4 54  2  0  0  0  0
  5 56  1  0  0  0  0
  5110  1  0  0  0  0
  6 55  2  0  0  0  0
  7 56  2  0  0  0  0
  8 57  2  0  0  0  0
  9 17  1  0  0  0  0
  9 21  2  0  0  0  0
 10 23  1  0  0  0  0
 10 29  1  0  0  0  0
 10 66  1  0  0  0  0
 11 24  1  0  0  0  0
 11 32  1  0  0  0  0
 11 68  1  0  0  0  0
 12 34  1  0  0  0  0
 12 36  1  0  0  0  0
 12 76  1  0  0  0  0
 13 51  1  0  0  0  0
 13104  1  0  0  0  0
 13105  1  0  0  0  0
 14 53  1  0  0  0  0
 14106  1  0  0  0  0
 14107  1  0  0  0  0
 15 55  1  0  0  0  0
 15 58  1  0  0  0  0
 15108  1  0  0  0  0
 16 57  1  0  0  0  0
 16 59  1  0  0  0  0
 16111  1  0  0  0  0
 17 18  1  0  0  0  0
 17 22  1  0  0  0  0
 17 60  1  0  0  0  0
 18 19  2  0  0  0  0
 18 20  1  0  0  0  0
 19 21  1  0  0  0  0
 19 26  1  0  0  0  0
 20 37  1  0  0  0  0
 20 61  1  0  0  0  0
 21 30  1  0  0  0  0
 22 23  2  3  0  0  0
 22 62  1  0  0  0  0
 23 28  1  0  0  0  0
 24 25  1  0  0  0  0
 24 30  2  3  0  0  0
 25 31  2  0  0  0  0
 25 33  1  0  0  0  0
 26 42  1  0  0  0  0
 26 63  1  0  0  0  0
 26 64  1  0  0  0  0
 27 28  2  0  0  0  0
 27 29  1  0  0  0  0
 27 40  1  0  0  0  0
 28 44  1  0  0  0  0
 29 39  2  3  0  0  0
 30 65  1  0  0  0  0
 31 32  1  0  0  0  0
 31 45  1  0  0  0  0
 32 41  2  3  0  0  0
 33 47  1  0  0  0  0
 33 67  1  0  0  0  0
 34 35  2  0  0  0  0
 34 39  1  0  0  0  0
 35 38  1  0  0  0  0
 35 43  1  0  0  0  0
 36 38  2  0  0  0  0
 36 41  1  0  0  0  0
 37 69  1  0  0  0  0
 37 70  1  0  0  0  0
 37 71  1  0  0  0  0
 38 49  1  0  0  0  0
 39 72  1  0  0  0  0
 40 48  1  0  0  0  0
 40 73  1  0  0  0  0
 40 74  1  0  0  0  0
 41 75  1  0  0  0  0
 42 77  1  0  0  0  0
 42 78  1  0  0  0  0
 42 79  1  0  0  0  0
 43 50  1  0  0  0  0
 43 80  1  0  0  0  0
 43 81  1  0  0  0  0
 44 82  1  0  0  0  0
 44 83  1  0  0  0  0
 44 84  1  0  0  0  0
 45 85  1  0  0  0  0
 45 86  1  0  0  0  0
 45 87  1  0  0  0  0
 46 51  1  0  0  0  0
 46 88  1  0  0  0  0
 46 89  1  0  0  0  0
 47 90  1  0  0  0  0
 47 91  1  0  0  0  0
 47 92  1  0  0  0  0
 48 54  1  0  0  0  0
 48 93  1  0  0  0  0
 48 94  1  0  0  0  0
 49 95  1  0  0  0  0
 49 96  1  0  0  0  0
 49 97  1  0  0  0  0
 50 56  1  0  0  0  0
 50 98  1  0  0  0  0
 50 99  1  0  0  0  0
 51 55  1  0  0  0  0
 51100  1  0  0  0  0
 52 53  1  0  0  0  0
 52101  1  0  0  0  0
 52102  1  0  0  0  0
 53 57  1  0  0  0  0
 53103  1  0  0  0  0
 58112  1  0  0  0  0
 58113  1  0  0  0  0
 58114  1  0  0  0  0
 59115  1  0  0  0  0
 59116  1  0  0  0  0
 59117  1  0  0  0  0
M  END
> <PUBCHEM_COMPOUND_CID>
395

> <PUBCHEM_COMPOUND_CANONICALIZED>
1

> <PUBCHEM_CACTVS_COMPLEXITY>
1960

> <PUBCHEM_CACTVS_HBOND_ACCEPTOR>
13

> <PUBCHEM_CACTVS_HBOND_DONOR>
9

> <PUBCHEM_CACTVS_ROTATABLE_BOND>
17

> <PUBCHEM_CACTVS_SUBSKEYS>
AAADcfB/+ABgAAAAAAAAAAAAAAAAAWIECAAAAAAAAAAAAAABgAAAHgQQCAAADCjF3gSCiJLJkgioAyXyXACCgCAhAjAAmaG4RJgIYHLgkJGUQAhkkgDoyAeY2TOegAAAAAAAAAAAAAAAAAAAAAAAAAAAAA==

> <PUBCHEM_IUPAC_OPENEYE_NAME>
3-[7,12-bis[1-[2-amino-3-(methylamino)-3-oxo-propyl]sulfanylethyl]-18-(2-carboxyethyl)-8-ethyl-3,13,17-trimethyl-6,21,23,24-tetrahydroporphyrin-2-yl]propanoic acid

> <PUBCHEM_IUPAC_CAS_NAME>
3-[7,12-bis[1-[[2-amino-3-(methylamino)-3-oxopropyl]thio]ethyl]-18-(2-carboxyethyl)-8-ethyl-3,13,17-trimethyl-6,21,23,24-tetrahydroporphyrin-2-yl]propanoic acid

> <PUBCHEM_IUPAC_NAME_MARKUP>
3-[7,12-bis[1-[2-amino-3-(methylamino)-3-oxopropyl]sulfanylethyl]-18-(2-carboxyethyl)-8-ethyl-3,13,17-trimethyl-6,21,23,24-tetrahydroporphyrin-2-yl]propanoic acid

> <PUBCHEM_IUPAC_NAME>
3-[7,12-bis[1-[2-amino-3-(methylamino)-3-oxopropyl]sulfanylethyl]-18-(2-carboxyethyl)-8-ethyl-3,13,17-trimethyl-6,21,23,24-tetrahydroporphyrin-2-yl]propanoic acid

> <PUBCHEM_IUPAC_SYSTEMATIC_NAME>
3-[7,12-bis[1-[2-azanyl-3-(methylamino)-3-oxidanylidene-propyl]sulfanylethyl]-8-ethyl-18-(3-hydroxy-3-oxopropyl)-3,13,17-trimethyl-6,21,23,24-tetrahydroporphyrin-2-yl]propanoic acid

> <PUBCHEM_IUPAC_TRADITIONAL_NAME>
3-[7,12-bis[1-[[2-amino-3-keto-3-(methylamino)propyl]thio]ethyl]-18-(2-carboxyethyl)-8-ethyl-3,13,17-trimethyl-6,21,23,24-tetrahydroporphin-2-yl]propionic acid

> <PUBCHEM_IUPAC_INCHI>
InChI=1S/C43H58N8O6S2/c1-9-25-33-17-36-40(23(5)58-18-28(44)42(56)46-7)22(4)32(50-36)14-30-20(2)26(10-12-38(52)53)34(48-30)16-35-27(11-13-39(54)55)21(3)31(49-35)15-37(51-33)41(25)24(6)59-19-29(45)43(57)47-8/h14-17,23-24,28-29,37,48-50H,9-13,18-19,44-45H2,1-8H3,(H,46,56)(H,47,57)(H,52,53)(H,54,55)

> <PUBCHEM_IUPAC_INCHIKEY>
SOYOWSWLLUMDSN-UHFFFAOYSA-N

> <PUBCHEM_XLOGP3_AA>
-3.7

> <PUBCHEM_EXACT_MASS>
846.39207395

> <PUBCHEM_MOLECULAR_FORMULA>
C43H58N8O6S2

> <PUBCHEM_MOLECULAR_WEIGHT>
847.1

> <PUBCHEM_SMILES>
CCC1=C(C2C=C3C(=C(C(=CC4=C(C(=C(N4)C=C5C(=C(C(=CC1=N2)N5)C(C)SCC(C(=O)NC)N)C)C)CCC(=O)O)N3)CCC(=O)O)C)C(C)SCC(C(=O)NC)N

> <PUBCHEM_CONNECTIVITY_SMILES>
CCC1=C(C2C=C3C(=C(C(=CC4=C(C(=C(N4)C=C5C(=C(C(=CC1=N2)N5)C(C)SCC(C(=O)NC)N)C)C)CCC(=O)O)N3)CCC(=O)O)C)C(C)SCC(C(=O)NC)N

> <PUBCHEM_CACTVS_TPSA>
288

> <PUBCHEM_MONOISOTOPIC_WEIGHT>
846.39207395

> <PUBCHEM_TOTAL_CHARGE>
0

> <PUBCHEM_HEAVY_ATOM_COUNT>
59

> <PUBCHEM_ATOM_DEF_STEREO_COUNT>
0

> <PUBCHEM_ATOM_UDEF_STEREO_COUNT>
5

> <PUBCHEM_BOND_DEF_STEREO_COUNT>
0

> <PUBCHEM_BOND_UDEF_STEREO_COUNT>
4

> <PUBCHEM_ISOTOPIC_ATOM_COUNT>
0

> <PUBCHEM_COMPONENT_COUNT>
1

> <PUBCHEM_CACTVS_TAUTO_COUNT>
-1

> <PUBCHEM_COORDINATE_TYPE>
1
5
255

> <PUBCHEM_BONDANNOTATIONS>
10  23  8
10  29  8
11  24  8
11  32  8
12  34  8
12  36  8
51  13  3
53  14  3
17  22  3
20  37  3
22  23  1
23  28  8
24  25  8
24  30  1
25  31  8
27  28  8
27  29  8
29  39  1
31  32  8
32  41  1
33  47  3
34  35  8
35  38  8
36  38  8

$$$$
