534
  -OEChem-08152602542D

120124  0     1  0  0  0  0  0999 V2000
   13.3546   -1.2022    0.0000 O   0  0  0  0  0  0  0  0  0  0  0  0
   11.7483   -1.8503    0.0000 O   0  0  0  0  0  0  0  0  0  0  0  0
    9.3146   -4.9272    0.0000 O   0  0  0  0  0  0  0  0  0  0  0  0
    7.7280   -4.2325    0.0000 O   0  0  0  0  0  0  0  0  0  0  0  0
   13.1379    3.0833    0.0000 O   0  0  0  0  0  0  0  0  0  0  0  0
    6.1468   -5.5650    0.0000 O   0  0  0  0  0  0  0  0  0  0  0  0
   11.9228    4.3176    0.0000 O   0  0  0  0  0  0  0  0  0  0  0  0
    7.8694   -5.3840    0.0000 O   0  0  0  0  0  0  0  0  0  0  0  0
    9.3261    5.8636    0.0000 O   0  0  0  0  0  0  0  0  0  0  0  0
   10.2144    4.3768    0.0000 O   0  0  0  0  0  0  0  0  0  0  0  0
    2.5718    1.7705    0.0000 O   0  0  0  0  0  0  0  0  0  0  0  0
    3.2413    0.1731    0.0000 O   0  0  0  0  0  0  0  0  0  0  0  0
    4.3501    4.7406    0.0000 O   0  0  0  0  0  0  0  0  0  0  0  0
    3.7469   -3.2231    0.0000 O   0  0  0  0  0  0  0  0  0  0  0  0
    5.7451    5.7672    0.0000 O   0  0  0  0  0  0  0  0  0  0  0  0
    2.6982   -1.8446    0.0000 O   0  0  0  0  0  0  0  0  0  0  0  0
    9.5044    0.4590    0.0000 N   0  0  0  0  0  0  0  0  0  0  0  0
    8.0430   -0.8737    0.0000 N   0  0  0  0  0  0  0  0  0  0  0  0
    8.0104    1.7918    0.0000 N   0  0  0  0  0  0  0  0  0  0  0  0
    6.5798    0.4590    0.0000 N   0  0  0  0  0  0  0  0  0  0  0  0
   10.0893   -0.2563    0.0000 C   0  0  3  0  0  0  0  0  0  0  0  0
   11.0000    0.0045    0.0000 C   0  0  3  0  0  0  0  0  0  0  0  0
    8.8234   -1.4587    0.0000 C   0  0  3  0  0  0  0  0  0  0  0  0
    8.5302   -2.4004    0.0000 C   0  0  3  0  0  0  0  0  0  0  0  0
   11.0000    0.9787    0.0000 C   0  0  3  0  0  0  0  0  0  0  0  0
    7.5558   -2.4004    0.0000 C   0  0  3  0  0  0  0  0  0  0  0  0
   10.0567    1.2394    0.0000 C   0  0  0  0  0  0  0  0  0  0  0  0
   10.5856   -1.1245    0.0000 C   0  0  0  0  0  0  0  0  0  0  0  0
   11.9902   -0.1352    0.0000 C   0  0  0  0  0  0  0  0  0  0  0  0
    7.2625   -1.4913    0.0000 C   0  0  0  0  0  0  0  0  0  0  0  0
   11.1732   -0.9804    0.0000 C   0  0  0  0  0  0  0  0  0  0  0  0
    9.1229   -3.2058    0.0000 C   0  0  0  0  0  0  0  0  0  0  0  0
   11.7127    1.6802    0.0000 C   0  0  0  0  0  0  0  0  0  0  0  0
    7.6603   -3.3950    0.0000 C   0  0  0  0  0  0  0  0  0  0  0  0
    6.6423   -2.8072    0.0000 C   0  0  0  0  0  0  0  0  0  0  0  0
    9.7651    2.1485    0.0000 C   0  0  0  0  0  0  0  0  0  0  0  0
    6.3208   -1.1980    0.0000 C   0  0  0  0  0  0  0  0  0  0  0  0
   11.4614    2.6481    0.0000 C   0  0  0  0  0  0  0  0  0  0  0  0
   12.3644   -1.0626    0.0000 C   0  0  0  0  0  0  0  0  0  0  0  0
    6.8513   -3.9827    0.0000 C   0  0  0  0  0  0  0  0  0  0  0  0
    8.7218   -4.1218    0.0000 C   0  0  0  0  0  0  0  0  0  0  0  0
    8.8234    2.4418    0.0000 C   0  0  0  0  0  0  0  0  0  0  0  0
    8.4976    3.3510    0.0000 C   0  0  3  0  0  0  0  0  0  0  0  0
    6.0276   -0.2889    0.0000 C   0  0  0  0  0  0  0  0  0  0  0  0
    6.0276    1.2068    0.0000 C   0  0  3  0  0  0  0  0  0  0  0  0
    7.5232    3.3510    0.0000 C   0  0  0  0  0  0  0  0  0  0  0  0
    7.2299    2.4092    0.0000 C   0  0  0  0  0  0  0  0  0  0  0  0
   12.1741    3.3497    0.0000 C   0  0  0  0  0  0  0  0  0  0  0  0
    5.0858   -0.0282    0.0000 C   0  0  0  0  0  0  0  0  0  0  0  0
    6.9558   -4.9772    0.0000 C   0  0  0  0  0  0  0  0  0  0  0  0
    6.2883    2.1485    0.0000 C   0  0  0  0  0  0  0  0  0  0  0  0
    5.0858    0.9461    0.0000 C   0  0  0  0  0  0  0  0  0  0  0  0
    8.4826    4.3508    0.0000 C   0  0  0  0  0  0  0  0  0  0  0  0
    9.4439    3.6742    0.0000 C   0  0  0  0  0  0  0  0  0  0  0  0
    6.9305    4.1564    0.0000 C   0  0  0  0  0  0  0  0  0  0  0  0
    5.3205    1.9139    0.0000 C   0  0  0  0  0  0  0  0  0  0  0  0
    4.2900   -0.6336    0.0000 C   0  0  0  0  0  0  0  0  0  0  0  0
    4.2900    1.5516    0.0000 C   0  0  0  0  0  0  0  0  0  0  0  0
    9.3410    4.8637    0.0000 C   0  0  0  0  0  0  0  0  0  0  0  0
    5.9366    4.0458    0.0000 C   0  0  0  0  0  0  0  0  0  0  0  0
    4.4164   -1.6256    0.0000 C   0  0  0  0  0  0  0  0  0  0  0  0
    3.3677    1.1651    0.0000 C   0  0  0  0  0  0  0  0  0  0  0  0
    5.3439    4.8512    0.0000 C   0  0  0  0  0  0  0  0  0  0  0  0
    3.6205   -2.2311    0.0000 C   0  0  0  0  0  0  0  0  0  0  0  0
    9.3498   -1.7862    0.0000 H   0  0  0  0  0  0  0  0  0  0  0  0
    8.2504   -2.9537    0.0000 H   0  0  0  0  0  0  0  0  0  0  0  0
   11.5719    0.7392    0.0000 H   0  0  0  0  0  0  0  0  0  0  0  0
    8.8848    0.4374    0.0000 H   0  0  0  0  0  0  0  0  0  0  0  0
    8.0348   -0.2538    0.0000 H   0  0  0  0  0  0  0  0  0  0  0  0
   10.0473   -1.4321    0.0000 H   0  0  0  0  0  0  0  0  0  0  0  0
   10.8932   -1.6628    0.0000 H   0  0  0  0  0  0  0  0  0  0  0  0
   11.1238   -0.8168    0.0000 H   0  0  0  0  0  0  0  0  0  0  0  0
   12.5967   -0.0066    0.0000 H   0  0  0  0  0  0  0  0  0  0  0  0
   11.9689    0.4844    0.0000 H   0  0  0  0  0  0  0  0  0  0  0  0
   10.5626   -1.0878    0.0000 H   0  0  0  0  0  0  0  0  0  0  0  0
   11.2806   -1.5911    0.0000 H   0  0  0  0  0  0  0  0  0  0  0  0
   11.7838   -0.8731    0.0000 H   0  0  0  0  0  0  0  0  0  0  0  0
    9.6391   -3.5493    0.0000 H   0  0  0  0  0  0  0  0  0  0  0  0
    9.5508   -2.7572    0.0000 H   0  0  0  0  0  0  0  0  0  0  0  0
   12.0643    1.1696    0.0000 H   0  0  0  0  0  0  0  0  0  0  0  0
   12.2766    1.9378    0.0000 H   0  0  0  0  0  0  0  0  0  0  0  0
    7.9321   -3.9522    0.0000 H   0  0  0  0  0  0  0  0  0  0  0  0
    8.2563   -3.2241    0.0000 H   0  0  0  0  0  0  0  0  0  0  0  0
    6.3901   -2.2407    0.0000 H   0  0  0  0  0  0  0  0  0  0  0  0
    6.0759   -3.0593    0.0000 H   0  0  0  0  0  0  0  0  0  0  0  0
    6.8944   -3.3736    0.0000 H   0  0  0  0  0  0  0  0  0  0  0  0
   10.2016    2.5888    0.0000 H   0  0  0  0  0  0  0  0  0  0  0  0
    5.8846   -1.6386    0.0000 H   0  0  0  0  0  0  0  0  0  0  0  0
   11.1098    3.1588    0.0000 H   0  0  0  0  0  0  0  0  0  0  0  0
   10.8975    2.3905    0.0000 H   0  0  0  0  0  0  0  0  0  0  0  0
    6.5795   -3.4255    0.0000 H   0  0  0  0  0  0  0  0  0  0  0  0
    6.2553   -4.1536    0.0000 H   0  0  0  0  0  0  0  0  0  0  0  0
    6.2325    2.7660    0.0000 H   0  0  0  0  0  0  0  0  0  0  0  0
    5.6708    2.2042    0.0000 H   0  0  0  0  0  0  0  0  0  0  0  0
    8.2618    4.9302    0.0000 H   0  0  0  0  0  0  0  0  0  0  0  0
    7.8737    4.2341    0.0000 H   0  0  0  0  0  0  0  0  0  0  0  0
   13.7365   -0.7138    0.0000 H   0  0  0  0  0  0  0  0  0  0  0  0
    9.6443    3.0874    0.0000 H   0  0  0  0  0  0  0  0  0  0  0  0
   10.0306    3.8746    0.0000 H   0  0  0  0  0  0  0  0  0  0  0  0
    9.2435    4.2609    0.0000 H   0  0  0  0  0  0  0  0  0  0  0  0
    9.9308   -4.8586    0.0000 H   0  0  0  0  0  0  0  0  0  0  0  0
    7.4861    4.4316    0.0000 H   0  0  0  0  0  0  0  0  0  0  0  0
    6.7560    4.7513    0.0000 H   0  0  0  0  0  0  0  0  0  0  0  0
    5.7589    2.3523    0.0000 H   0  0  0  0  0  0  0  0  0  0  0  0
    4.8821    2.3523    0.0000 H   0  0  0  0  0  0  0  0  0  0  0  0
    4.8820    1.4755    0.0000 H   0  0  0  0  0  0  0  0  0  0  0  0
    4.0060   -0.0825    0.0000 H   0  0  0  0  0  0  0  0  0  0  0  0
    3.6979   -0.8176    0.0000 H   0  0  0  0  0  0  0  0  0  0  0  0
    4.7454    1.9723    0.0000 H   0  0  0  0  0  0  0  0  0  0  0  0
    3.9547    2.0731    0.0000 H   0  0  0  0  0  0  0  0  0  0  0  0
   13.5798    3.5182    0.0000 H   0  0  0  0  0  0  0  0  0  0  0  0
    6.2116   -6.1816    0.0000 H   0  0  0  0  0  0  0  0  0  0  0  0
    5.3811    3.7706    0.0000 H   0  0  0  0  0  0  0  0  0  0  0  0
    6.1112    3.4508    0.0000 H   0  0  0  0  0  0  0  0  0  0  0  0
    4.7004   -2.1767    0.0000 H   0  0  0  0  0  0  0  0  0  0  0  0
    5.0085   -1.4416    0.0000 H   0  0  0  0  0  0  0  0  0  0  0  0
    9.8583    6.1816    0.0000 H   0  0  0  0  0  0  0  0  0  0  0  0
    2.0000    1.5309    0.0000 H   0  0  0  0  0  0  0  0  0  0  0  0
    3.9826    5.2399    0.0000 H   0  0  0  0  0  0  0  0  0  0  0  0
    3.2535   -3.5984    0.0000 H   0  0  0  0  0  0  0  0  0  0  0  0
  1 39  1  0  0  0  0
  1 97  1  0  0  0  0
  2 39  2  0  0  0  0
  3 41  1  0  0  0  0
  3101  1  0  0  0  0
  4 41  2  0  0  0  0
  5 48  1  0  0  0  0
  5111  1  0  0  0  0
  6 50  1  0  0  0  0
  6112  1  0  0  0  0
  7 48  2  0  0  0  0
  8 50  2  0  0  0  0
  9 59  1  0  0  0  0
  9117  1  0  0  0  0
 10 59  2  0  0  0  0
 11 62  1  0  0  0  0
 11118  1  0  0  0  0
 12 62  2  0  0  0  0
 13 63  1  0  0  0  0
 13119  1  0  0  0  0
 14 64  1  0  0  0  0
 14120  1  0  0  0  0
 15 63  2  0  0  0  0
 16 64  2  0  0  0  0
 17 21  1  0  0  0  0
 17 27  1  0  0  0  0
 17 68  1  0  0  0  0
 18 23  1  0  0  0  0
 18 30  1  0  0  0  0
 18 69  1  0  0  0  0
 19 42  2  0  0  0  0
 19 47  1  0  0  0  0
 20 44  2  0  0  0  0
 20 45  1  0  0  0  0
 21 22  1  0  0  0  0
 21 23  1  0  0  0  0
 21 28  1  0  0  0  0
 22 25  1  0  0  0  0
 22 29  1  0  0  0  0
 22 31  1  0  0  0  0
 23 24  1  0  0  0  0
 23 65  1  0  0  0  0
 24 26  1  0  0  0  0
 24 32  1  0  0  0  0
 24 66  1  0  0  0  0
 25 27  1  0  0  0  0
 25 33  1  0  0  0  0
 25 67  1  0  0  0  0
 26 30  1  0  0  0  0
 26 34  1  0  0  0  0
 26 35  1  0  0  0  0
 27 36  2  3  0  0  0
 28 70  1  0  0  0  0
 28 71  1  0  0  0  0
 28 72  1  0  0  0  0
 29 39  1  0  0  0  0
 29 73  1  0  0  0  0
 29 74  1  0  0  0  0
 30 37  2  3  0  0  0
 31 75  1  0  0  0  0
 31 76  1  0  0  0  0
 31 77  1  0  0  0  0
 32 41  1  0  0  0  0
 32 78  1  0  0  0  0
 32 79  1  0  0  0  0
 33 38  1  0  0  0  0
 33 80  1  0  0  0  0
 33 81  1  0  0  0  0
 34 40  1  0  0  0  0
 34 82  1  0  0  0  0
 34 83  1  0  0  0  0
 35 84  1  0  0  0  0
 35 85  1  0  0  0  0
 35 86  1  0  0  0  0
 36 42  1  0  0  0  0
 36 87  1  0  0  0  0
 37 44  1  0  0  0  0
 37 88  1  0  0  0  0
 38 48  1  0  0  0  0
 38 89  1  0  0  0  0
 38 90  1  0  0  0  0
 40 50  1  0  0  0  0
 40 91  1  0  0  0  0
 40 92  1  0  0  0  0
 42 43  1  0  0  0  0
 43 46  1  0  0  0  0
 43 53  1  0  0  0  0
 43 54  1  0  0  0  0
 44 49  1  0  0  0  0
 45 51  1  0  0  0  0
 45 52  1  0  0  0  0
 45 56  1  0  0  0  0
 46 47  2  0  0  0  0
 46 55  1  0  0  0  0
 47 51  1  0  0  0  0
 49 52  2  0  0  0  0
 49 57  1  0  0  0  0
 51 93  1  0  0  0  0
 51 94  1  0  0  0  0
 52 58  1  0  0  0  0
 53 59  1  0  0  0  0
 53 95  1  0  0  0  0
 53 96  1  0  0  0  0
 54 98  1  0  0  0  0
 54 99  1  0  0  0  0
 54100  1  0  0  0  0
 55 60  1  0  0  0  0
 55102  1  0  0  0  0
 55103  1  0  0  0  0
 56104  1  0  0  0  0
 56105  1  0  0  0  0
 56106  1  0  0  0  0
 57 61  1  0  0  0  0
 57107  1  0  0  0  0
 57108  1  0  0  0  0
 58 62  1  0  0  0  0
 58109  1  0  0  0  0
 58110  1  0  0  0  0
 60 63  1  0  0  0  0
 60113  1  0  0  0  0
 60114  1  0  0  0  0
 61 64  1  0  0  0  0
 61115  1  0  0  0  0
 61116  1  0  0  0  0
M  END
> <PUBCHEM_COMPOUND_CID>
534

> <PUBCHEM_COMPOUND_CANONICALIZED>
1

> <PUBCHEM_CACTVS_COMPLEXITY>
2270

> <PUBCHEM_CACTVS_HBOND_ACCEPTOR>
20

> <PUBCHEM_CACTVS_HBOND_DONOR>
10

> <PUBCHEM_CACTVS_ROTATABLE_BOND>
20

> <PUBCHEM_CACTVS_SUBSKEYS>
AAADcfB/vgAAAAAAAAAAAAAAAAAAAWLECAAAAAAAAAAAAAAAAAAAHgAQCAAAD6jBgAQCCALAAgCoAyTyTACAAAAgAgAACIE4ABgAQBIAwQAUQAAE0ACIAAO82fOfgAAAAAAAAAAAAAAAAAAAAAAAAAAAAA==

> <PUBCHEM_IUPAC_OPENEYE_NAME>
3-[8,13,17-tris(2-carboxyethyl)-2,7,12,18-tetrakis(carboxymethyl)-1,2,7,11,17-pentamethyl-3,10,18,19,21,24-hexahydrocorrin-3-yl]propanoic acid

> <PUBCHEM_IUPAC_CAS_NAME>
3-[8,13,17-tris(2-carboxyethyl)-2,7,12,18-tetrakis(carboxymethyl)-1,2,7,11,17-pentamethyl-3,10,18,19,21,24-hexahydrocorrin-3-yl]propanoic acid

> <PUBCHEM_IUPAC_NAME_MARKUP>
3-[8,13,17-tris(2-carboxyethyl)-2,7,12,18-tetrakis(carboxymethyl)-1,2,7,11,17-pentamethyl-3,10,18,19,21,24-hexahydrocorrin-3-yl]propanoic acid

> <PUBCHEM_IUPAC_NAME>
3-[8,13,17-tris(2-carboxyethyl)-2,7,12,18-tetrakis(carboxymethyl)-1,2,7,11,17-pentamethyl-3,10,18,19,21,24-hexahydrocorrin-3-yl]propanoic acid

> <PUBCHEM_IUPAC_SYSTEMATIC_NAME>
3-[2,7,12,18-tetrakis(2-hydroxy-2-oxoethyl)-8,13,17-tris(3-hydroxy-3-oxopropyl)-1,2,7,11,17-pentamethyl-3,10,18,19,21,24-hexahydrocorrin-3-yl]propanoic acid

> <PUBCHEM_IUPAC_TRADITIONAL_NAME>
3-[8,13,17-tris(2-carboxyethyl)-2,7,12,18-tetrakis(carboxymethyl)-1,2,7,11,17-pentamethyl-3,10,18,19,21,24-hexahydrocorrin-3-yl]propionic acid

> <PUBCHEM_IUPAC_INCHI>
InChI=1S/C44H56N4O16/c1-40(13-12-34(55)56)25(15-36(59)60)39-44(5)42(3,20-38(63)64)23(8-11-33(53)54)27(48-44)17-30-41(2,19-37(61)62)22(7-10-32(51)52)28(45-30)18-43(4)24(14-35(57)58)21(6-9-31(49)50)26(47-43)16-29(40)46-39/h16-17,23,25,39,46,48H,6-15,18-20H2,1-5H3,(H,49,50)(H,51,52)(H,53,54)(H,55,56)(H,57,58)(H,59,60)(H,61,62)(H,63,64)

> <PUBCHEM_IUPAC_INCHIKEY>
UZVGLSZJXWVSGT-UHFFFAOYSA-N

> <PUBCHEM_XLOGP3_AA>
-0.9

> <PUBCHEM_EXACT_MASS>
896.36913171

> <PUBCHEM_MOLECULAR_FORMULA>
C44H56N4O16

> <PUBCHEM_MOLECULAR_WEIGHT>
896.9

> <PUBCHEM_SMILES>
CC12CC3=C(C(C(=N3)C=C4C(C(C(N4)(C5C(C(C(=CC(=N1)C(=C2CC(=O)O)CCC(=O)O)N5)(C)CCC(=O)O)CC(=O)O)C)(C)CC(=O)O)CCC(=O)O)(C)CC(=O)O)CCC(=O)O

> <PUBCHEM_CONNECTIVITY_SMILES>
CC12CC3=C(C(C(=N3)C=C4C(C(C(N4)(C5C(C(C(=CC(=N1)C(=C2CC(=O)O)CCC(=O)O)N5)(C)CCC(=O)O)CC(=O)O)C)(C)CC(=O)O)CCC(=O)O)(C)CC(=O)O)CCC(=O)O

> <PUBCHEM_CACTVS_TPSA>
347

> <PUBCHEM_MONOISOTOPIC_WEIGHT>
896.36913171

> <PUBCHEM_TOTAL_CHARGE>
0

> <PUBCHEM_HEAVY_ATOM_COUNT>
64

> <PUBCHEM_ATOM_DEF_STEREO_COUNT>
0

> <PUBCHEM_ATOM_UDEF_STEREO_COUNT>
8

> <PUBCHEM_BOND_DEF_STEREO_COUNT>
0

> <PUBCHEM_BOND_UDEF_STEREO_COUNT>
2

> <PUBCHEM_ISOTOPIC_ATOM_COUNT>
0

> <PUBCHEM_COMPONENT_COUNT>
1

> <PUBCHEM_CACTVS_TAUTO_COUNT>
-1

> <PUBCHEM_COORDINATE_TYPE>
1
5
255

> <PUBCHEM_BONDANNOTATIONS>
23  18  3
21  28  3
22  31  3
24  32  3
25  33  3
26  35  3
27  36  1
30  37  1
43  54  3
45  56  3

$$$$
