1078
  -OEChem-08152603413D

 47 49  0     1  0  0  0  0  0999 V2000
   -3.5104    0.1140   -1.5278 S   0  3  2  0  0  0  0  0  0  0  0  0
   -0.5816   -0.5312   -0.7215 O   0  0  0  0  0  0  0  0  0  0  0  0
   -1.6696   -2.6677    1.9470 O   0  0  0  0  0  0  0  0  0  0  0  0
    1.2812   -3.0079    1.0407 O   0  0  0  0  0  0  0  0  0  0  0  0
    1.6166    0.0300   -0.0508 N   0  0  0  0  0  0  0  0  0  0  0  0
    2.3571    2.0590    0.5060 N   0  0  0  0  0  0  0  0  0  0  0  0
    3.7136   -1.0163   -0.6902 N   0  0  0  0  0  0  0  0  0  0  0  0
    5.5863    0.5302   -0.4508 N   0  0  0  0  0  0  0  0  0  0  0  0
   -5.6812    2.6662    1.7038 N   0  0  0  0  0  0  0  0  0  0  0  0
    5.3062    2.7769    0.3247 N   0  0  0  0  0  0  0  0  0  0  0  0
   -1.6266   -1.1028    0.0837 C   0  0  2  0  0  0  0  0  0  0  0  0
   -1.0281   -2.3420    0.7288 C   0  0  1  0  0  0  0  0  0  0  0  0
    0.3995   -1.9013    0.9687 C   0  0  2  0  0  0  0  0  0  0  0  0
    0.6789   -1.0681   -0.2757 C   0  0  1  0  0  0  0  0  0  0  0  0
   -2.8332   -1.4003   -0.7883 C   0  0  0  0  0  0  0  0  0  0  0  0
   -4.4909    0.6132   -0.0940 C   0  0  0  0  0  0  0  0  0  0  0  0
    2.9685    0.0085   -0.2497 C   0  0  0  0  0  0  0  0  0  0  0  0
    1.2980    1.2835    0.4026 C   0  0  0  0  0  0  0  0  0  0  0  0
   -4.8549   -0.6898   -2.4291 C   0  0  0  0  0  0  0  0  0  0  0  0
   -5.6319    1.5495   -0.4784 C   0  0  0  0  0  0  0  0  0  0  0  0
    3.4081    1.2748    0.1015 C   0  0  0  0  0  0  0  0  0  0  0  0
   -6.4931    1.9601    0.7184 C   0  0  0  0  0  0  0  0  0  0  0  0
    4.7728    1.5206   -0.0116 C   0  0  0  0  0  0  0  0  0  0  0  0
    5.0147   -0.6592   -0.7582 C   0  0  0  0  0  0  0  0  0  0  0  0
   -1.8896   -0.3674    0.8547 H   0  0  0  0  0  0  0  0  0  0  0  0
   -1.0684   -3.2143    0.0653 H   0  0  0  0  0  0  0  0  0  0  0  0
    0.4954   -1.3222    1.8951 H   0  0  0  0  0  0  0  0  0  0  0  0
    1.0858   -1.6731   -1.0949 H   0  0  0  0  0  0  0  0  0  0  0  0
   -3.6080   -1.9362   -0.2316 H   0  0  0  0  0  0  0  0  0  0  0  0
   -2.5254   -2.0314   -1.6302 H   0  0  0  0  0  0  0  0  0  0  0  0
   -1.1834   -3.4093    2.3455 H   0  0  0  0  0  0  0  0  0  0  0  0
   -4.9039   -0.2708    0.4031 H   0  0  0  0  0  0  0  0  0  0  0  0
   -3.8033    1.0996    0.6048 H   0  0  0  0  0  0  0  0  0  0  0  0
    1.0021   -3.5554    1.7940 H   0  0  0  0  0  0  0  0  0  0  0  0
    0.2858    1.5759    0.6472 H   0  0  0  0  0  0  0  0  0  0  0  0
   -5.4503    0.0646   -2.9480 H   0  0  0  0  0  0  0  0  0  0  0  0
   -5.4888   -1.2797   -1.7625 H   0  0  0  0  0  0  0  0  0  0  0  0
   -4.4199   -1.3507   -3.1840 H   0  0  0  0  0  0  0  0  0  0  0  0
   -6.3049    1.0767   -1.2004 H   0  0  0  0  0  0  0  0  0  0  0  0
   -5.2299    2.4444   -0.9712 H   0  0  0  0  0  0  0  0  0  0  0  0
   -6.9422    1.0757    1.1827 H   0  0  0  0  0  0  0  0  0  0  0  0
   -7.3069    2.6110    0.3814 H   0  0  0  0  0  0  0  0  0  0  0  0
    5.6955   -1.4287   -1.1062 H   0  0  0  0  0  0  0  0  0  0  0  0
   -6.2777    2.9856    2.4659 H   0  0  0  0  0  0  0  0  0  0  0  0
   -5.2818    3.5040    1.2827 H   0  0  0  0  0  0  0  0  0  0  0  0
    6.3013    2.9306    0.2351 H   0  0  0  0  0  0  0  0  0  0  0  0
    4.7014    3.5173    0.6537 H   0  0  0  0  0  0  0  0  0  0  0  0
  1 15  1  0  0  0  0
  1 16  1  0  0  0  0
  1 19  1  0  0  0  0
  2 11  1  0  0  0  0
  2 14  1  0  0  0  0
  3 12  1  0  0  0  0
  3 31  1  0  0  0  0
  4 13  1  0  0  0  0
  4 34  1  0  0  0  0
  5 14  1  0  0  0  0
  5 17  1  0  0  0  0
  5 18  1  0  0  0  0
  6 18  2  0  0  0  0
  6 21  1  0  0  0  0
  7 17  2  0  0  0  0
  7 24  1  0  0  0  0
  8 23  1  0  0  0  0
  8 24  2  0  0  0  0
  9 22  1  0  0  0  0
  9 44  1  0  0  0  0
  9 45  1  0  0  0  0
 10 23  1  0  0  0  0
 10 46  1  0  0  0  0
 10 47  1  0  0  0  0
 11 12  1  0  0  0  0
 11 15  1  0  0  0  0
 11 25  1  0  0  0  0
 12 13  1  0  0  0  0
 12 26  1  0  0  0  0
 13 14  1  0  0  0  0
 13 27  1  0  0  0  0
 14 28  1  0  0  0  0
 15 29  1  0  0  0  0
 15 30  1  0  0  0  0
 16 20  1  0  0  0  0
 16 32  1  0  0  0  0
 16 33  1  0  0  0  0
 17 21  1  0  0  0  0
 18 35  1  0  0  0  0
 19 36  1  0  0  0  0
 19 37  1  0  0  0  0
 19 38  1  0  0  0  0
 20 22  1  0  0  0  0
 20 39  1  0  0  0  0
 20 40  1  0  0  0  0
 21 23  2  0  0  0  0
 22 41  1  0  0  0  0
 22 42  1  0  0  0  0
 24 43  1  0  0  0  0
M  CHG  1   1   1
M  END
> <PUBCHEM_COMPOUND_CID>
1078

> <PUBCHEM_CONFORMER_RMSD>
0.8

> <PUBCHEM_CONFORMER_DIVERSEORDER>
73
414
1
440
178
152
79
312
148
288
8
145
415
165
373
234
61
36
356
422
447
309
457
75
157
87
434
154
293
242
223
463
386
167
370
50
261
321
130
204
462
89
347
216
43
92
127
153
271
74
320
161
239
60
168
9
443
433
58
456
131
55
431
361
224
173
341
285
436
86
281
357
181
291
292
435
78
441
303
372
5
4
299
230
54
391
417
142
339
12
365
442
184
266
238
221
450
32
62
175
202
129
198
69
188
368
263
364
399
461
106
160
464
114
248
23
400
389
444
117
120
406
362
90
379
128
14
35
41
378
287
448
138
302
342
123
340
264
133
84
220
374
189
88
267
229
47
334
119
306
326
66
105
219
388
197
446
64
24
437
311
185
151
349
360
371
116
351
122
428
268
163
51
53
16
179
330
18
72
11
28
135
290
102
377
426
214
10
397
255
132
260
359
147
363
99
369
355
253
401
315
217
71
121
211
257
458
380
29
254
333
232
313
45
34
301
455
104
283
394
17
193
44
82
65
134
215
430
85
183
416
196
150
393
162
139
344
22
83
304
222
286
298
280
7
459
201
407
192
97
59
136
296
13
241
314
109
209
207
144
279
235
307
125
70
323
38
212
182
245
419
171
408
169
159
187
155
367
124
262
218
335
451
332
297
429
427
101
383
2
256
93
115
63
305
278
336
418
103
76
404
210
194
396
158
327
308
259
96
180
164
177
21
272
425
19
200
227
231
348
319
277
337
49
107
15
205
453
25
317
126
460
108
274
246
111
94
449
68
233
37
166
56
195
325
328
438
445
282
237
338
80
30
350
375
353
20
140
403
269
324
186
395
352
392
345
190
424
57
226
112
250
421
410
390
98
385
252
118
265
146
199
331
366
31
420
249
452
100
432
6
346
358
33
213
236
423
208
156
295
258
40
247
77
143
191
381
273
409
275
174
27
310
384
3
412
206
289
170
225
454
81
294
39
95
439
251
318
149
343
91
300
405
322
411
382
316
26
270
398
46
203
387
228
354
240
137
413
376
402
110
67
284
113
48
276
244
52
172
176
243
329
141
42

> <PUBCHEM_EFFECTIVE_ROTOR_COUNT>
7

> <PUBCHEM_PHARMACOPHORE_FEATURES>
15
1 10 cation
1 10 donor
1 2 acceptor
1 3 acceptor
1 3 donor
1 4 acceptor
1 4 donor
1 9 cation
1 9 donor
3 5 6 18 cation
3 5 7 17 cation
3 7 8 24 cation
5 2 11 12 13 14 rings
5 5 6 17 18 21 rings
6 7 8 17 21 23 24 rings

> <PUBCHEM_HEAVY_ATOM_COUNT>
24

> <PUBCHEM_ATOM_DEF_STEREO_COUNT>
0

> <PUBCHEM_ATOM_UDEF_STEREO_COUNT>
4

> <PUBCHEM_BOND_DEF_STEREO_COUNT>
0

> <PUBCHEM_BOND_UDEF_STEREO_COUNT>
0

> <PUBCHEM_ISOTOPIC_ATOM_COUNT>
0

> <PUBCHEM_COMPONENT_COUNT>
1

> <PUBCHEM_CACTVS_TAUTO_COUNT>
3

> <PUBCHEM_CONFORMER_ID>
0000043600000049

> <PUBCHEM_MMFF94_ENERGY>
45.6072

> <PUBCHEM_FEATURE_SELFOVERLAP>
76.729

> <PUBCHEM_SHAPE_FINGERPRINT>
10906281 52 18337113483856372636
11796584 16 15769770251820252279
12390115 104 18333737939908513023
13464514 151 18410008827685534203
15183329 4 17846498110633569949
15188451 53 12251904806965256277
15375358 24 18266175222735654654
15415430 10 8646767798890693053
18222031 100 10735875075604691326
200 152 17346040086024797094
20645477 70 18130792304441894382
21033648 29 18267580380915034160
21279426 13 18409732833287384662
21401589 2 18040431122829033563
21756936 100 18412544323643733763
221357 26 18200864175768256109
22224240 67 17967536762309921105
23402655 69 18201997750375305748
23559900 14 18335420210437827942
23845131 108 18113338583980262915
2838139 119 18272930544202881709
3009799 131 13686291353590724519
38570 142 18340497668676226413
4098825 35 17703793622194380039
469060 322 16877942780972373335
5104073 3 18040427815419853714
5385378 56 18188207602768278098
57035037 87 16558454306902254890
59755656 520 18333732412396463815
633830 44 18411411834560753295

> <PUBCHEM_SHAPE_MULTIPOLES>
450.26
14.47
3.04
1.46
6.44
0.09
-0.18
-12.34
-1.79
0.51
1.71
2.32
0.5
-1.16

> <PUBCHEM_SHAPE_SELFOVERLAP>
930.565

> <PUBCHEM_SHAPE_VOLUME>
261.1

> <PUBCHEM_COORDINATE_TYPE>
2
5
10

$$$$
