590
  -OEChem-08152602593D

 24 23  0     0  0  0  0  0  0999 V2000
   -3.6248   -0.8689    0.2635 O   0  0  0  0  0  0  0  0  0  0  0  0
   -2.8707    1.2786    0.1088 O   0  0  0  0  0  0  0  0  0  0  0  0
    2.1789   -0.0062    0.0771 N   0  3  0  0  0  0  0  0  0  0  0  0
    1.0486   -0.3818   -0.8702 C   0  0  0  0  0  0  0  0  0  0  0  0
    1.8693   -0.5334    1.4709 C   0  0  0  0  0  0  0  0  0  0  0  0
    3.4810   -0.6182   -0.4191 C   0  0  0  0  0  0  0  0  0  0  0  0
    2.3171    1.5086    0.1270 C   0  0  0  0  0  0  0  0  0  0  0  0
   -0.3142    0.1403   -0.5306 C   0  0  0  0  0  0  0  0  0  0  0  0
   -1.4050   -0.5948   -0.2739 C   0  0  0  0  0  0  0  0  0  0  0  0
   -2.6803    0.0758    0.0464 C   0  0  0  0  0  0  0  0  0  0  0  0
    1.3308   -0.0121   -1.8642 H   0  0  0  0  0  0  0  0  0  0  0  0
    1.0359   -1.4781   -0.9246 H   0  0  0  0  0  0  0  0  0  0  0  0
    1.7212   -1.6157    1.4085 H   0  0  0  0  0  0  0  0  0  0  0  0
    2.7207   -0.3051    2.1194 H   0  0  0  0  0  0  0  0  0  0  0  0
    0.9712   -0.0408    1.8539 H   0  0  0  0  0  0  0  0  0  0  0  0
    3.6890   -0.2265   -1.4192 H   0  0  0  0  0  0  0  0  0  0  0  0
    4.2816   -0.3408    0.2729 H   0  0  0  0  0  0  0  0  0  0  0  0
    3.3643   -1.7056   -0.4495 H   0  0  0  0  0  0  0  0  0  0  0  0
    2.4447    1.8821   -0.8934 H   0  0  0  0  0  0  0  0  0  0  0  0
    1.4293    1.9421    0.5949 H   0  0  0  0  0  0  0  0  0  0  0  0
    3.1987    1.7504    0.7290 H   0  0  0  0  0  0  0  0  0  0  0  0
   -0.4082    1.2243   -0.5321 H   0  0  0  0  0  0  0  0  0  0  0  0
   -1.3688   -1.6785   -0.2800 H   0  0  0  0  0  0  0  0  0  0  0  0
   -4.4962   -0.4741    0.4811 H   0  0  0  0  0  0  0  0  0  0  0  0
  1 10  1  0  0  0  0
  1 24  1  0  0  0  0
  2 10  2  0  0  0  0
  3  4  1  0  0  0  0
  3  5  1  0  0  0  0
  3  6  1  0  0  0  0
  3  7  1  0  0  0  0
  4  8  1  0  0  0  0
  4 11  1  0  0  0  0
  4 12  1  0  0  0  0
  5 13  1  0  0  0  0
  5 14  1  0  0  0  0
  5 15  1  0  0  0  0
  6 16  1  0  0  0  0
  6 17  1  0  0  0  0
  6 18  1  0  0  0  0
  7 19  1  0  0  0  0
  7 20  1  0  0  0  0
  7 21  1  0  0  0  0
  8  9  2  3  0  0  0
  8 22  1  0  0  0  0
  9 10  1  0  0  0  0
  9 23  1  0  0  0  0
M  CHG  1   3   1
M  END
> <PUBCHEM_COMPOUND_CID>
590

> <PUBCHEM_CONFORMER_RMSD>
0.6

> <PUBCHEM_CONFORMER_DIVERSEORDER>
1
2
3

> <PUBCHEM_MMFF94_PARTIAL_CHARGES>
13
1 -0.65
10 0.71
2 -0.57
22 0.15
23 0.15
24 0.5
3 -1.01
4 0.64
5 0.5
6 0.5
7 0.5
8 -0.29
9 -0.14

> <PUBCHEM_EFFECTIVE_ROTOR_COUNT>
3

> <PUBCHEM_PHARMACOPHORE_FEATURES>
4
1 1 acceptor
1 2 acceptor
1 3 cation
3 1 2 10 anion

> <PUBCHEM_HEAVY_ATOM_COUNT>
10

> <PUBCHEM_ATOM_DEF_STEREO_COUNT>
0

> <PUBCHEM_ATOM_UDEF_STEREO_COUNT>
0

> <PUBCHEM_BOND_DEF_STEREO_COUNT>
0

> <PUBCHEM_BOND_UDEF_STEREO_COUNT>
1

> <PUBCHEM_ISOTOPIC_ATOM_COUNT>
0

> <PUBCHEM_COMPONENT_COUNT>
1

> <PUBCHEM_CACTVS_TAUTO_COUNT>
1

> <PUBCHEM_CONFORMER_ID>
0000024E00000001

> <PUBCHEM_MMFF94_ENERGY>
24.6275

> <PUBCHEM_FEATURE_SELFOVERLAP>
20.353

> <PUBCHEM_SHAPE_FINGERPRINT>
10857977 72 18272086119562490769
11062470 55 11530481138008297406
12897270 3 8142086476482657623
12932764 1 17822002103762562663
14325111 11 18342177777861344133
14390081 3 16200429169790491099
15775835 57 17968098577542799697
170605 34 18264768934083441728
177051 138 18261395585090879651
20339313 130 17917722283690086628
20645477 70 14779531371157594539
21028194 46 17275102838268785543
29004967 10 15357695275477773228
3248919 1 18271515455547216607
5084963 1 17775568632515516458
581208 293 16370720452552987474

> <PUBCHEM_SHAPE_MULTIPOLES>
189.08
6.03
1.15
0.97
2.52
0.42
-0.25
-0.24
-0.41
-0.13
-0.05
-0.54
-0.17
0.04

> <PUBCHEM_SHAPE_SELFOVERLAP>
349.671

> <PUBCHEM_SHAPE_VOLUME>
121.4

> <PUBCHEM_COORDINATE_TYPE>
2
5
10

$$$$
