462
  -OEChem-08152602482D

 74 73  0     1  0  0  0  0  0999 V2000
   14.9904    0.9050    0.0000 O   0  0  0  0  0  0  0  0  0  0  0  0
   15.8564    2.4050    0.0000 O   0  0  0  0  0  0  0  0  0  0  0  0
   14.9904   -2.0950    0.0000 O   0  0  0  0  0  0  0  0  0  0  0  0
   14.1244   -0.5950    0.0000 O   0  0  0  0  0  0  0  0  0  0  0  0
   17.5885    0.4050    0.0000 N   0  3  0  0  0  0  0  0  0  0  0  0
   16.7224    0.9050    0.0000 C   0  0  0  0  0  0  0  0  0  0  0  0
   15.8564    0.4050    0.0000 C   0  0  3  0  0  0  0  0  0  0  0  0
   18.4545   -0.0950    0.0000 C   0  0  0  0  0  0  0  0  0  0  0  0
   18.0885    1.2710    0.0000 C   0  0  0  0  0  0  0  0  0  0  0  0
   17.0885   -0.4610    0.0000 C   0  0  0  0  0  0  0  0  0  0  0  0
    8.9282    2.4050    0.0000 C   0  0  0  0  0  0  0  0  0  0  0  0
    9.7942    1.9050    0.0000 C   0  0  0  0  0  0  0  0  0  0  0  0
    8.0622    1.9050    0.0000 C   0  0  0  0  0  0  0  0  0  0  0  0
   10.6603    2.4050    0.0000 C   0  0  0  0  0  0  0  0  0  0  0  0
    7.1962    2.4050    0.0000 C   0  0  0  0  0  0  0  0  0  0  0  0
   11.5263    1.9050    0.0000 C   0  0  0  0  0  0  0  0  0  0  0  0
   15.8564   -0.5950    0.0000 C   0  0  0  0  0  0  0  0  0  0  0  0
    6.3301    1.9050    0.0000 C   0  0  0  0  0  0  0  0  0  0  0  0
   12.3923    2.4050    0.0000 C   0  0  0  0  0  0  0  0  0  0  0  0
    5.4641    2.4050    0.0000 C   0  0  0  0  0  0  0  0  0  0  0  0
   13.2583    1.9050    0.0000 C   0  0  0  0  0  0  0  0  0  0  0  0
    4.5981    1.9050    0.0000 C   0  0  0  0  0  0  0  0  0  0  0  0
   14.1244    2.4050    0.0000 C   0  0  0  0  0  0  0  0  0  0  0  0
   14.9904    1.9050    0.0000 C   0  0  0  0  0  0  0  0  0  0  0  0
    3.7321    2.4050    0.0000 C   0  0  0  0  0  0  0  0  0  0  0  0
   14.9904   -1.0950    0.0000 C   0  0  0  0  0  0  0  0  0  0  0  0
    2.8660    1.9050    0.0000 C   0  0  0  0  0  0  0  0  0  0  0  0
    2.0000    2.4050    0.0000 C   0  0  0  0  0  0  0  0  0  0  0  0
   17.1210    1.3800    0.0000 H   0  0  0  0  0  0  0  0  0  0  0  0
   16.3239    1.3800    0.0000 H   0  0  0  0  0  0  0  0  0  0  0  0
   15.3195    0.0950    0.0000 H   0  0  0  0  0  0  0  0  0  0  0  0
   18.1445   -0.6319    0.0000 H   0  0  0  0  0  0  0  0  0  0  0  0
   18.9914   -0.4050    0.0000 H   0  0  0  0  0  0  0  0  0  0  0  0
   18.7645    0.4419    0.0000 H   0  0  0  0  0  0  0  0  0  0  0  0
   18.6254    0.9610    0.0000 H   0  0  0  0  0  0  0  0  0  0  0  0
   18.3985    1.8080    0.0000 H   0  0  0  0  0  0  0  0  0  0  0  0
   17.5515    1.5810    0.0000 H   0  0  0  0  0  0  0  0  0  0  0  0
   16.5515   -0.1510    0.0000 H   0  0  0  0  0  0  0  0  0  0  0  0
   16.7785   -0.9980    0.0000 H   0  0  0  0  0  0  0  0  0  0  0  0
   17.6254   -0.7710    0.0000 H   0  0  0  0  0  0  0  0  0  0  0  0
    9.3267    2.8800    0.0000 H   0  0  0  0  0  0  0  0  0  0  0  0
    8.5297    2.8800    0.0000 H   0  0  0  0  0  0  0  0  0  0  0  0
    9.3957    1.4301    0.0000 H   0  0  0  0  0  0  0  0  0  0  0  0
   10.1928    1.4301    0.0000 H   0  0  0  0  0  0  0  0  0  0  0  0
    7.6637    1.4301    0.0000 H   0  0  0  0  0  0  0  0  0  0  0  0
    8.4607    1.4301    0.0000 H   0  0  0  0  0  0  0  0  0  0  0  0
   11.0588    2.8800    0.0000 H   0  0  0  0  0  0  0  0  0  0  0  0
   10.2617    2.8800    0.0000 H   0  0  0  0  0  0  0  0  0  0  0  0
    7.5947    2.8800    0.0000 H   0  0  0  0  0  0  0  0  0  0  0  0
    6.7976    2.8800    0.0000 H   0  0  0  0  0  0  0  0  0  0  0  0
   11.1278    1.4301    0.0000 H   0  0  0  0  0  0  0  0  0  0  0  0
   11.9248    1.4301    0.0000 H   0  0  0  0  0  0  0  0  0  0  0  0
   16.0685   -1.1776    0.0000 H   0  0  0  0  0  0  0  0  0  0  0  0
   16.4670   -0.4873    0.0000 H   0  0  0  0  0  0  0  0  0  0  0  0
    5.9316    1.4301    0.0000 H   0  0  0  0  0  0  0  0  0  0  0  0
    6.7287    1.4301    0.0000 H   0  0  0  0  0  0  0  0  0  0  0  0
   12.7908    2.8800    0.0000 H   0  0  0  0  0  0  0  0  0  0  0  0
   11.9938    2.8800    0.0000 H   0  0  0  0  0  0  0  0  0  0  0  0
    5.8626    2.8800    0.0000 H   0  0  0  0  0  0  0  0  0  0  0  0
    5.0656    2.8800    0.0000 H   0  0  0  0  0  0  0  0  0  0  0  0
   12.8598    1.4301    0.0000 H   0  0  0  0  0  0  0  0  0  0  0  0
   13.6569    1.4301    0.0000 H   0  0  0  0  0  0  0  0  0  0  0  0
    4.1996    1.4301    0.0000 H   0  0  0  0  0  0  0  0  0  0  0  0
    4.9966    1.4301    0.0000 H   0  0  0  0  0  0  0  0  0  0  0  0
   14.5229    2.8800    0.0000 H   0  0  0  0  0  0  0  0  0  0  0  0
   13.7258    2.8800    0.0000 H   0  0  0  0  0  0  0  0  0  0  0  0
    4.1306    2.8800    0.0000 H   0  0  0  0  0  0  0  0  0  0  0  0
    3.3335    2.8800    0.0000 H   0  0  0  0  0  0  0  0  0  0  0  0
    2.4675    1.4301    0.0000 H   0  0  0  0  0  0  0  0  0  0  0  0
    3.2646    1.4301    0.0000 H   0  0  0  0  0  0  0  0  0  0  0  0
    2.3100    2.9419    0.0000 H   0  0  0  0  0  0  0  0  0  0  0  0
    1.4631    2.7150    0.0000 H   0  0  0  0  0  0  0  0  0  0  0  0
    1.6900    1.8681    0.0000 H   0  0  0  0  0  0  0  0  0  0  0  0
   14.4534   -2.4050    0.0000 H   0  0  0  0  0  0  0  0  0  0  0  0
  1  7  1  0  0  0  0
  1 24  1  0  0  0  0
  2 24  2  0  0  0  0
  3 26  1  0  0  0  0
  3 74  1  0  0  0  0
  4 26  2  0  0  0  0
  5  6  1  0  0  0  0
  5  8  1  0  0  0  0
  5  9  1  0  0  0  0
  5 10  1  0  0  0  0
  6  7  1  0  0  0  0
  6 29  1  0  0  0  0
  6 30  1  0  0  0  0
  7 17  1  0  0  0  0
  7 31  1  0  0  0  0
  8 32  1  0  0  0  0
  8 33  1  0  0  0  0
  8 34  1  0  0  0  0
  9 35  1  0  0  0  0
  9 36  1  0  0  0  0
  9 37  1  0  0  0  0
 10 38  1  0  0  0  0
 10 39  1  0  0  0  0
 10 40  1  0  0  0  0
 11 12  1  0  0  0  0
 11 13  1  0  0  0  0
 11 41  1  0  0  0  0
 11 42  1  0  0  0  0
 12 14  1  0  0  0  0
 12 43  1  0  0  0  0
 12 44  1  0  0  0  0
 13 15  1  0  0  0  0
 13 45  1  0  0  0  0
 13 46  1  0  0  0  0
 14 16  1  0  0  0  0
 14 47  1  0  0  0  0
 14 48  1  0  0  0  0
 15 18  1  0  0  0  0
 15 49  1  0  0  0  0
 15 50  1  0  0  0  0
 16 19  1  0  0  0  0
 16 51  1  0  0  0  0
 16 52  1  0  0  0  0
 17 26  1  0  0  0  0
 17 53  1  0  0  0  0
 17 54  1  0  0  0  0
 18 20  1  0  0  0  0
 18 55  1  0  0  0  0
 18 56  1  0  0  0  0
 19 21  1  0  0  0  0
 19 57  1  0  0  0  0
 19 58  1  0  0  0  0
 20 22  1  0  0  0  0
 20 59  1  0  0  0  0
 20 60  1  0  0  0  0
 21 23  1  0  0  0  0
 21 61  1  0  0  0  0
 21 62  1  0  0  0  0
 22 25  1  0  0  0  0
 22 63  1  0  0  0  0
 22 64  1  0  0  0  0
 23 24  1  0  0  0  0
 23 65  1  0  0  0  0
 23 66  1  0  0  0  0
 25 27  1  0  0  0  0
 25 67  1  0  0  0  0
 25 68  1  0  0  0  0
 27 28  1  0  0  0  0
 27 69  1  0  0  0  0
 27 70  1  0  0  0  0
 28 71  1  0  0  0  0
 28 72  1  0  0  0  0
 28 73  1  0  0  0  0
M  CHG  1   5   1
M  END
> <PUBCHEM_COMPOUND_CID>
462

> <PUBCHEM_COMPOUND_CANONICALIZED>
1

> <PUBCHEM_CACTVS_COMPLEXITY>
404

> <PUBCHEM_CACTVS_HBOND_ACCEPTOR>
4

> <PUBCHEM_CACTVS_HBOND_DONOR>
1

> <PUBCHEM_CACTVS_ROTATABLE_BOND>
20

> <PUBCHEM_CACTVS_SUBSKEYS>
AAADcfB6OAAAAAAAAAAAAAAAAAAAAAAAAAAAAAAAAAAAAAAAAAAAHgAACAAACBThgAYCCAMABgAIAACQCAAAAAAAAAAAAAEIAAACABYAgAAHQAAFIAAQAAGsyKCAAAAAAAAAAAAAAAAAAAAAAAAAAAAAAA==

> <PUBCHEM_IUPAC_OPENEYE_NAME>
(3-carboxy-2-hexadecanoyloxy-propyl)-trimethyl-ammonium

> <PUBCHEM_IUPAC_CAS_NAME>
[3-carboxy-2-(1-oxohexadecoxy)propyl]-trimethylammonium

> <PUBCHEM_IUPAC_NAME_MARKUP>
(3-carboxy-2-hexadecanoyloxypropyl)-trimethylazanium

> <PUBCHEM_IUPAC_NAME>
(3-carboxy-2-hexadecanoyloxypropyl)-trimethylazanium

> <PUBCHEM_IUPAC_SYSTEMATIC_NAME>
(2-hexadecanoyloxy-4-oxidanyl-4-oxidanylidene-butyl)-trimethyl-azanium

> <PUBCHEM_IUPAC_TRADITIONAL_NAME>
(3-carboxy-2-hexadecanoyloxy-propyl)-trimethyl-ammonium

> <PUBCHEM_IUPAC_INCHI>
InChI=1S/C23H45NO4/c1-5-6-7-8-9-10-11-12-13-14-15-16-17-18-23(27)28-21(19-22(25)26)20-24(2,3)4/h21H,5-20H2,1-4H3/p+1

> <PUBCHEM_IUPAC_INCHIKEY>
XOMRRQXKHMYMOC-UHFFFAOYSA-O

> <PUBCHEM_XLOGP3_AA>
7.1

> <PUBCHEM_EXACT_MASS>
400.34268395

> <PUBCHEM_MOLECULAR_FORMULA>
C23H46NO4+

> <PUBCHEM_MOLECULAR_WEIGHT>
400.6

> <PUBCHEM_SMILES>
CCCCCCCCCCCCCCCC(=O)OC(CC(=O)O)C[N+](C)(C)C

> <PUBCHEM_CONNECTIVITY_SMILES>
CCCCCCCCCCCCCCCC(=O)OC(CC(=O)O)C[N+](C)(C)C

> <PUBCHEM_CACTVS_TPSA>
63.6

> <PUBCHEM_MONOISOTOPIC_WEIGHT>
400.34268395

> <PUBCHEM_TOTAL_CHARGE>
1

> <PUBCHEM_HEAVY_ATOM_COUNT>
28

> <PUBCHEM_ATOM_DEF_STEREO_COUNT>
0

> <PUBCHEM_ATOM_UDEF_STEREO_COUNT>
1

> <PUBCHEM_BOND_DEF_STEREO_COUNT>
0

> <PUBCHEM_BOND_UDEF_STEREO_COUNT>
0

> <PUBCHEM_ISOTOPIC_ATOM_COUNT>
0

> <PUBCHEM_COMPONENT_COUNT>
1

> <PUBCHEM_CACTVS_TAUTO_COUNT>
-1

> <PUBCHEM_COORDINATE_TYPE>
1
5
255

> <PUBCHEM_BONDANNOTATIONS>
7  17  3

$$$$
