103
  -OEChem-08152602222D

148154  0     1  0  0  0  0  0999 V2000
   11.2283   -3.6190    0.0000 S   0  0  0  0  0  0  0  0  0  0  0  0
   23.2421    9.4365    0.0000 P   0  0  0  0  0  0  0  0  0  0  0  0
   20.5631    5.4287    0.0000 P   0  0  3  0  0  0  0  0  0  0  0  0
   19.2740    4.2719    0.0000 P   0  0  3  0  0  0  0  0  0  0  0  0
    6.5271   -5.6877    0.0000 O   0  0  0  0  0  0  0  0  0  0  0  0
    7.4149  -10.2192    0.0000 O   0  0  0  0  0  0  0  0  0  0  0  0
    2.0000  -10.2401    0.0000 O   0  0  0  0  0  0  0  0  0  0  0  0
   11.5855   -5.3138    0.0000 O   0  0  0  0  0  0  0  0  0  0  0  0
   13.1388   -0.5612    0.0000 O   0  0  0  0  0  0  0  0  0  0  0  0
   23.5728    6.1212    0.0000 O   0  0  0  0  0  0  0  0  0  0  0  0
   22.7406    8.5714    0.0000 O   0  0  0  0  0  0  0  0  0  0  0  0
   24.9039    8.3402    0.0000 O   0  0  0  0  0  0  0  0  0  0  0  0
   15.7171    1.7522    0.0000 O   0  0  0  0  0  0  0  0  0  0  0  0
   21.5416    5.6349    0.0000 O   0  0  0  0  0  0  0  0  0  0  0  0
   18.0313    0.4699    0.0000 O   0  0  0  0  0  0  0  0  0  0  0  0
   18.9633    3.3214    0.0000 O   0  0  0  0  0  0  0  0  0  0  0  0
   23.7436   10.3017    0.0000 O   0  0  0  0  0  0  0  0  0  0  0  0
   22.3770    9.9380    0.0000 O   0  0  0  0  0  0  0  0  0  0  0  0
   19.5846    5.2225    0.0000 O   0  0  0  0  0  0  0  0  0  0  0  0
   24.1073    8.9350    0.0000 O   0  0  0  0  0  0  0  0  0  0  0  0
   20.3569    6.4072    0.0000 O   0  0  0  0  0  0  0  0  0  0  0  0
   20.7694    4.4502    0.0000 O   0  0  0  0  0  0  0  0  0  0  0  0
   20.2245    3.9613    0.0000 O   0  0  0  0  0  0  0  0  0  0  0  0
   18.3235    4.5826    0.0000 O   0  0  0  0  0  0  0  0  0  0  0  0
   13.4960   -2.2560    0.0000 N   0  0  0  0  0  0  0  0  0  0  0  0
   16.0743    0.0574    0.0000 N   0  0  0  0  0  0  0  0  0  0  0  0
   25.3525    6.2114    0.0000 N   0  0  0  0  0  0  0  0  0  0  0  0
   26.5449    5.1303    0.0000 N   0  0  0  0  0  0  0  0  0  0  0  0
   26.4252    7.6851    0.0000 N   0  0  0  0  0  0  0  0  0  0  0  0
   28.1181    7.3192    0.0000 N   0  0  0  0  0  0  0  0  0  0  0  0
   28.6476    5.6700    0.0000 N   0  0  0  0  0  0  0  0  0  0  0  0
    7.3931   -7.1877    0.0000 C   0  0  3  0  0  0  0  0  0  0  0  0
    7.3931   -8.1877    0.0000 C   0  0  3  0  0  0  0  0  0  0  0  0
    6.5271   -8.6877    0.0000 C   0  0  3  0  0  0  0  0  0  0  0  0
    5.6610   -8.1877    0.0000 C   0  0  3  0  0  0  0  0  0  0  0  0
    4.7510   -8.6946    0.0000 C   0  0  3  0  0  0  0  0  0  0  0  0
    8.3393   -6.8830    0.0000 C   0  0  3  0  0  0  0  0  0  0  0  0
    6.5271   -6.6877    0.0000 C   0  0  3  0  0  0  0  0  0  0  0  0
    5.6610   -7.1877    0.0000 C   0  0  0  0  0  0  0  0  0  0  0  0
    8.3393   -8.4925    0.0000 C   0  0  0  0  0  0  0  0  0  0  0  0
    4.7430   -9.7362    0.0000 C   0  0  3  0  0  0  0  0  0  0  0  0
    6.5431   -9.7292    0.0000 C   0  0  3  0  0  0  0  0  0  0  0  0
    8.9229   -7.6877    0.0000 C   0  0  0  0  0  0  0  0  0  0  0  0
    5.6451  -10.2570    0.0000 C   0  0  0  0  0  0  0  0  0  0  0  0
    3.8242   -8.1305    0.0000 C   0  0  0  0  0  0  0  0  0  0  0  0
    7.3931   -6.1877    0.0000 C   0  0  0  0  0  0  0  0  0  0  0  0
    8.6500   -5.9325    0.0000 C   0  0  3  0  0  0  0  0  0  0  0  0
    4.7587   -7.6946    0.0000 C   0  0  0  0  0  0  0  0  0  0  0  0
    3.8076  -10.2859    0.0000 C   0  0  0  0  0  0  0  0  0  0  0  0
    2.8763   -8.6584    0.0000 C   0  0  0  0  0  0  0  0  0  0  0  0
    2.8680   -9.7434    0.0000 C   0  0  0  0  0  0  0  0  0  0  0  0
    9.6285   -5.7263    0.0000 C   0  0  0  0  0  0  0  0  0  0  0  0
    7.9821   -5.1882    0.0000 C   0  0  0  0  0  0  0  0  0  0  0  0
    9.9391   -4.7758    0.0000 C   0  0  0  0  0  0  0  0  0  0  0  0
   10.9176   -4.5695    0.0000 C   0  0  0  0  0  0  0  0  0  0  0  0
   12.2068   -3.4128    0.0000 C   0  0  0  0  0  0  0  0  0  0  0  0
   12.5175   -2.4623    0.0000 C   0  0  0  0  0  0  0  0  0  0  0  0
   13.8066   -1.3055    0.0000 C   0  0  0  0  0  0  0  0  0  0  0  0
   14.7851   -1.0993    0.0000 C   0  0  0  0  0  0  0  0  0  0  0  0
   15.0958   -0.1488    0.0000 C   0  0  0  0  0  0  0  0  0  0  0  0
   23.2391    7.7045    0.0000 C   0  0  3  0  0  0  0  0  0  0  0  0
   16.3850    1.0079    0.0000 C   0  0  0  0  0  0  0  0  0  0  0  0
   24.2335    7.5982    0.0000 C   0  0  3  0  0  0  0  0  0  0  0  0
   22.8308    6.7916    0.0000 C   0  0  3  0  0  0  0  0  0  0  0  0
   24.4397    6.6197    0.0000 C   0  0  3  0  0  0  0  0  0  0  0  0
   17.3635    1.2142    0.0000 C   0  0  3  0  0  0  0  0  0  0  0  0
   21.8523    6.5854    0.0000 C   0  0  0  0  0  0  0  0  0  0  0  0
   17.6741    2.1647    0.0000 C   0  0  0  0  0  0  0  0  0  0  0  0
   26.2139    6.7077    0.0000 C   0  0  0  0  0  0  0  0  0  0  0  0
   25.5567    5.2385    0.0000 C   0  0  0  0  0  0  0  0  0  0  0  0
   17.9848    3.1152    0.0000 C   0  0  0  0  0  0  0  0  0  0  0  0
   26.9547    6.0360    0.0000 C   0  0  0  0  0  0  0  0  0  0  0  0
   18.6247    1.8540    0.0000 C   0  0  0  0  0  0  0  0  0  0  0  0
   16.7236    2.4754    0.0000 C   0  0  0  0  0  0  0  0  0  0  0  0
   27.9068    6.3417    0.0000 C   0  0  0  0  0  0  0  0  0  0  0  0
   27.3773    7.9908    0.0000 C   0  0  0  0  0  0  0  0  0  0  0  0
    7.4587   -8.8043    0.0000 H   0  0  0  0  0  0  0  0  0  0  0  0
    7.0664   -8.9936    0.0000 H   0  0  0  0  0  0  0  0  0  0  0  0
    6.1980   -7.8777    0.0000 H   0  0  0  0  0  0  0  0  0  0  0  0
    8.9518   -6.7868    0.0000 H   0  0  0  0  0  0  0  0  0  0  0  0
    5.9901   -6.3777    0.0000 H   0  0  0  0  0  0  0  0  0  0  0  0
    5.4490   -6.6051    0.0000 H   0  0  0  0  0  0  0  0  0  0  0  0
    5.0504   -7.2954    0.0000 H   0  0  0  0  0  0  0  0  0  0  0  0
    8.0883   -9.0594    0.0000 H   0  0  0  0  0  0  0  0  0  0  0  0
    8.8767   -8.8017    0.0000 H   0  0  0  0  0  0  0  0  0  0  0  0
    4.7454  -10.3562    0.0000 H   0  0  0  0  0  0  0  0  0  0  0  0
    6.5491  -10.3492    0.0000 H   0  0  0  0  0  0  0  0  0  0  0  0
    9.3838   -8.1025    0.0000 H   0  0  0  0  0  0  0  0  0  0  0  0
    9.3838   -7.2730    0.0000 H   0  0  0  0  0  0  0  0  0  0  0  0
    5.2478  -10.7330    0.0000 H   0  0  0  0  0  0  0  0  0  0  0  0
    6.0460  -10.7299    0.0000 H   0  0  0  0  0  0  0  0  0  0  0  0
    4.2324   -7.6638    0.0000 H   0  0  0  0  0  0  0  0  0  0  0  0
    3.4343   -7.6485    0.0000 H   0  0  0  0  0  0  0  0  0  0  0  0
    8.0131   -6.1877    0.0000 H   0  0  0  0  0  0  0  0  0  0  0  0
    7.3931   -5.5677    0.0000 H   0  0  0  0  0  0  0  0  0  0  0  0
    6.7731   -6.1877    0.0000 H   0  0  0  0  0  0  0  0  0  0  0  0
    8.0433   -6.0603    0.0000 H   0  0  0  0  0  0  0  0  0  0  0  0
    5.3787   -7.6994    0.0000 H   0  0  0  0  0  0  0  0  0  0  0  0
    4.7635   -7.0746    0.0000 H   0  0  0  0  0  0  0  0  0  0  0  0
    4.1388   -7.6898    0.0000 H   0  0  0  0  0  0  0  0  0  0  0  0
    3.4103  -10.7619    0.0000 H   0  0  0  0  0  0  0  0  0  0  0  0
    4.2085  -10.7588    0.0000 H   0  0  0  0  0  0  0  0  0  0  0  0
    2.6718   -8.0732    0.0000 H   0  0  0  0  0  0  0  0  0  0  0  0
    2.2647   -8.7598    0.0000 H   0  0  0  0  0  0  0  0  0  0  0  0
    5.9901   -5.3777    0.0000 H   0  0  0  0  0  0  0  0  0  0  0  0
    9.6490   -6.3459    0.0000 H   0  0  0  0  0  0  0  0  0  0  0  0
   10.2423   -5.8136    0.0000 H   0  0  0  0  0  0  0  0  0  0  0  0
    7.4220  -10.8392    0.0000 H   0  0  0  0  0  0  0  0  0  0  0  0
    8.4436   -4.7741    0.0000 H   0  0  0  0  0  0  0  0  0  0  0  0
    7.5681   -4.7267    0.0000 H   0  0  0  0  0  0  0  0  0  0  0  0
    7.5207   -5.6022    0.0000 H   0  0  0  0  0  0  0  0  0  0  0  0
    9.9186   -4.1561    0.0000 H   0  0  0  0  0  0  0  0  0  0  0  0
    9.3253   -4.6884    0.0000 H   0  0  0  0  0  0  0  0  0  0  0  0
   12.2274   -4.0324    0.0000 H   0  0  0  0  0  0  0  0  0  0  0  0
   12.8206   -3.5001    0.0000 H   0  0  0  0  0  0  0  0  0  0  0  0
   12.4969   -1.8426    0.0000 H   0  0  0  0  0  0  0  0  0  0  0  0
   11.9037   -2.3749    0.0000 H   0  0  0  0  0  0  0  0  0  0  0  0
   13.9100   -2.7175    0.0000 H   0  0  0  0  0  0  0  0  0  0  0  0
   14.8057   -1.7190    0.0000 H   0  0  0  0  0  0  0  0  0  0  0  0
   15.3990   -1.1867    0.0000 H   0  0  0  0  0  0  0  0  0  0  0  0
   15.0752    0.4709    0.0000 H   0  0  0  0  0  0  0  0  0  0  0  0
   14.4820   -0.0614    0.0000 H   0  0  0  0  0  0  0  0  0  0  0  0
   16.4884   -0.4040    0.0000 H   0  0  0  0  0  0  0  0  0  0  0  0
   23.5777    8.2239    0.0000 H   0  0  0  0  0  0  0  0  0  0  0  0
   24.0123    8.1774    0.0000 H   0  0  0  0  0  0  0  0  0  0  0  0
   22.6693    6.1931    0.0000 H   0  0  0  0  0  0  0  0  0  0  0  0
   24.9222    7.0091    0.0000 H   0  0  0  0  0  0  0  0  0  0  0  0
   17.9702    1.3420    0.0000 H   0  0  0  0  0  0  0  0  0  0  0  0
   21.8317    7.2051    0.0000 H   0  0  0  0  0  0  0  0  0  0  0  0
   21.2385    6.6728    0.0000 H   0  0  0  0  0  0  0  0  0  0  0  0
   24.7133    8.9302    0.0000 H   0  0  0  0  0  0  0  0  0  0  0  0
   25.1402    4.7792    0.0000 H   0  0  0  0  0  0  0  0  0  0  0  0
   17.9642    3.7349    0.0000 H   0  0  0  0  0  0  0  0  0  0  0  0
   17.3710    3.2026    0.0000 H   0  0  0  0  0  0  0  0  0  0  0  0
   18.4321    1.2647    0.0000 H   0  0  0  0  0  0  0  0  0  0  0  0
   19.2140    1.6614    0.0000 H   0  0  0  0  0  0  0  0  0  0  0  0
   18.8173    2.4433    0.0000 H   0  0  0  0  0  0  0  0  0  0  0  0
   16.9162    3.0647    0.0000 H   0  0  0  0  0  0  0  0  0  0  0  0
   16.1343    2.6680    0.0000 H   0  0  0  0  0  0  0  0  0  0  0  0
   16.5310    1.8860    0.0000 H   0  0  0  0  0  0  0  0  0  0  0  0
   18.6380    0.5977    0.0000 H   0  0  0  0  0  0  0  0  0  0  0  0
   23.4346   10.8392    0.0000 H   0  0  0  0  0  0  0  0  0  0  0  0
   21.8395    9.6290    0.0000 H   0  0  0  0  0  0  0  0  0  0  0  0
   27.5083    8.5968    0.0000 H   0  0  0  0  0  0  0  0  0  0  0  0
   19.7676    6.5998    0.0000 H   0  0  0  0  0  0  0  0  0  0  0  0
   29.2379    5.8596    0.0000 H   0  0  0  0  0  0  0  0  0  0  0  0
   28.5166    5.0640    0.0000 H   0  0  0  0  0  0  0  0  0  0  0  0
   20.3524    3.3546    0.0000 H   0  0  0  0  0  0  0  0  0  0  0  0
  1 55  1  0  0  0  0
  1 56  1  0  0  0  0
  2 11  1  0  0  0  0
  2 17  1  0  0  0  0
  2 18  1  0  0  0  0
  2 20  2  0  0  0  0
  3 14  1  0  0  0  0
  3 19  1  0  0  0  0
  3 21  1  0  0  0  0
  3 22  2  0  0  0  0
  4 16  1  0  0  0  0
  4 19  1  0  0  0  0
  4 23  1  0  0  0  0
  4 24  2  0  0  0  0
  5 38  1  0  0  0  0
  5105  1  0  0  0  0
  6 42  1  0  0  0  0
  6108  1  0  0  0  0
  7 51  2  0  0  0  0
  8 55  2  0  0  0  0
  9 58  2  0  0  0  0
 10 64  1  0  0  0  0
 10 65  1  0  0  0  0
 11 61  1  0  0  0  0
 12 63  1  0  0  0  0
 12131  1  0  0  0  0
 13 62  2  0  0  0  0
 14 67  1  0  0  0  0
 15 66  1  0  0  0  0
 15141  1  0  0  0  0
 16 71  1  0  0  0  0
 17142  1  0  0  0  0
 18143  1  0  0  0  0
 21145  1  0  0  0  0
 23148  1  0  0  0  0
 25 57  1  0  0  0  0
 25 58  1  0  0  0  0
 25118  1  0  0  0  0
 26 60  1  0  0  0  0
 26 62  1  0  0  0  0
 26123  1  0  0  0  0
 27 65  1  0  0  0  0
 27 69  1  0  0  0  0
 27 70  1  0  0  0  0
 28 70  2  0  0  0  0
 28 72  1  0  0  0  0
 29 69  2  0  0  0  0
 29 76  1  0  0  0  0
 30 75  1  0  0  0  0
 30 76  2  0  0  0  0
 31 75  1  0  0  0  0
 31146  1  0  0  0  0
 31147  1  0  0  0  0
 32 33  1  0  0  0  0
 32 37  1  0  0  0  0
 32 38  1  0  0  0  0
 32 46  1  0  0  0  0
 33 34  1  0  0  0  0
 33 40  1  0  0  0  0
 33 77  1  0  0  0  0
 34 35  1  0  0  0  0
 34 42  1  0  0  0  0
 34 78  1  0  0  0  0
 35 36  1  0  0  0  0
 35 39  1  0  0  0  0
 35 79  1  0  0  0  0
 36 41  1  0  0  0  0
 36 45  1  0  0  0  0
 36 48  1  0  0  0  0
 37 43  1  0  0  0  0
 37 47  1  0  0  0  0
 37 80  1  0  0  0  0
 38 39  1  0  0  0  0
 38 81  1  0  0  0  0
 39 82  1  0  0  0  0
 39 83  1  0  0  0  0
 40 43  1  0  0  0  0
 40 84  1  0  0  0  0
 40 85  1  0  0  0  0
 41 44  1  0  0  0  0
 41 49  1  0  0  0  0
 41 86  1  0  0  0  0
 42 44  1  0  0  0  0
 42 87  1  0  0  0  0
 43 88  1  0  0  0  0
 43 89  1  0  0  0  0
 44 90  1  0  0  0  0
 44 91  1  0  0  0  0
 45 50  1  0  0  0  0
 45 92  1  0  0  0  0
 45 93  1  0  0  0  0
 46 94  1  0  0  0  0
 46 95  1  0  0  0  0
 46 96  1  0  0  0  0
 47 52  1  0  0  0  0
 47 53  1  0  0  0  0
 47 97  1  0  0  0  0
 48 98  1  0  0  0  0
 48 99  1  0  0  0  0
 48100  1  0  0  0  0
 49 51  1  0  0  0  0
 49101  1  0  0  0  0
 49102  1  0  0  0  0
 50 51  1  0  0  0  0
 50103  1  0  0  0  0
 50104  1  0  0  0  0
 52 54  1  0  0  0  0
 52106  1  0  0  0  0
 52107  1  0  0  0  0
 53109  1  0  0  0  0
 53110  1  0  0  0  0
 53111  1  0  0  0  0
 54 55  1  0  0  0  0
 54112  1  0  0  0  0
 54113  1  0  0  0  0
 56 57  1  0  0  0  0
 56114  1  0  0  0  0
 56115  1  0  0  0  0
 57116  1  0  0  0  0
 57117  1  0  0  0  0
 58 59  1  0  0  0  0
 59 60  1  0  0  0  0
 59119  1  0  0  0  0
 59120  1  0  0  0  0
 60121  1  0  0  0  0
 60122  1  0  0  0  0
 61 63  1  0  0  0  0
 61 64  1  0  0  0  0
 61124  1  0  0  0  0
 62 66  1  0  0  0  0
 63 65  1  0  0  0  0
 63125  1  0  0  0  0
 64 67  1  0  0  0  0
 64126  1  0  0  0  0
 65127  1  0  0  0  0
 66 68  1  0  0  0  0
 66128  1  0  0  0  0
 67129  1  0  0  0  0
 67130  1  0  0  0  0
 68 71  1  0  0  0  0
 68 73  1  0  0  0  0
 68 74  1  0  0  0  0
 69 72  1  0  0  0  0
 70132  1  0  0  0  0
 71133  1  0  0  0  0
 71134  1  0  0  0  0
 72 75  2  0  0  0  0
 73135  1  0  0  0  0
 73136  1  0  0  0  0
 73137  1  0  0  0  0
 74138  1  0  0  0  0
 74139  1  0  0  0  0
 74140  1  0  0  0  0
 76144  1  0  0  0  0
M  END
> <PUBCHEM_COMPOUND_CID>
103

> <PUBCHEM_COMPOUND_CANONICALIZED>
1

> <PUBCHEM_CACTVS_COMPLEXITY>
2260

> <PUBCHEM_CACTVS_HBOND_ACCEPTOR>
25

> <PUBCHEM_CACTVS_HBOND_DONOR>
11

> <PUBCHEM_CACTVS_ROTATABLE_BOND>
24

> <PUBCHEM_CACTVS_SUBSKEYS>
AAADcfB/vgNAAAAAAAAAAAAAAAAAAeJEAAA8YMEAAAAAAHjB+AAAHgQQCCAADxzl1waH8L/MFxioQYdxdIKAgC0RELABUKFoVBCDWBpgyEAeRAgPFgLzACH6/PbPgAAAAAAAAADAAAYAADAAAQAACAAAAA==

> <PUBCHEM_IUPAC_OPENEYE_NAME>
S-[2-[3-[[4-[[[5-(6-aminopurin-9-yl)-4-hydroxy-3-phosphonooxy-tetrahydrofuran-2-yl]methoxy-hydroxy-phosphoryl]oxy-hydroxy-phosphoryl]oxy-2-hydroxy-3,3-dimethyl-butanoyl]amino]propanoylamino]ethyl] 4-(7,12-dihydroxy-10,13-dimethyl-3-oxo-1,2,4,5,6,7,8,9,11,12,14,15,16,17-tetradecahydrocyclopenta[a]phenanthren-17-yl)pentanethioate

> <PUBCHEM_IUPAC_CAS_NAME>
4-(7,12-dihydroxy-10,13-dimethyl-3-oxo-1,2,4,5,6,7,8,9,11,12,14,15,16,17-tetradecahydrocyclopenta[a]phenanthren-17-yl)pentanethioic acid S-[2-[[3-[[4-[[[5-(6-aminopurin-9-yl)-4-hydroxy-3-phosphonooxy-2-oxolanyl]methoxy-hydroxyphosphoryl]oxy-hydroxyphosphoryl]oxy-2-hydroxy-3,3-dimethyl-1-oxobutyl]amino]-1-oxopropyl]amino]ethyl] ester

> <PUBCHEM_IUPAC_NAME_MARKUP>
<I>S</I>-[2-[3-[[4-[[[5-(6-aminopurin-9-yl)-4-hydroxy-3-phosphonooxyoxolan-2-yl]methoxy-hydroxyphosphoryl]oxy-hydroxyphosphoryl]oxy-2-hydroxy-3,3-dimethylbutanoyl]amino]propanoylamino]ethyl] 4-(7,12-dihydroxy-10,13-dimethyl-3-oxo-1,2,4,5,6,7,8,9,11,12,14,15,16,17-tetradecahydrocyclopenta[a]phenanthren-17-yl)pentanethioate

> <PUBCHEM_IUPAC_NAME>
S-[2-[3-[[4-[[[5-(6-aminopurin-9-yl)-4-hydroxy-3-phosphonooxyoxolan-2-yl]methoxy-hydroxyphosphoryl]oxy-hydroxyphosphoryl]oxy-2-hydroxy-3,3-dimethylbutanoyl]amino]propanoylamino]ethyl] 4-(7,12-dihydroxy-10,13-dimethyl-3-oxo-1,2,4,5,6,7,8,9,11,12,14,15,16,17-tetradecahydrocyclopenta[a]phenanthren-17-yl)pentanethioate

> <PUBCHEM_IUPAC_SYSTEMATIC_NAME>
S-[2-[3-[[4-[[[5-(6-aminopurin-9-yl)-4-oxidanyl-3-phosphonooxy-oxolan-2-yl]methoxy-oxidanyl-phosphoryl]oxy-oxidanyl-phosphoryl]oxy-3,3-dimethyl-2-oxidanyl-butanoyl]amino]propanoylamino]ethyl] 4-[10,13-dimethyl-7,12-bis(oxidanyl)-3-oxidanylidene-1,2,4,5,6,7,8,9,11,12,14,15,16,17-tetradecahydrocyclopenta[a]phenanthren-17-yl]pentanethioate

> <PUBCHEM_IUPAC_TRADITIONAL_NAME>
4-(7,12-dihydroxy-3-keto-10,13-dimethyl-1,2,4,5,6,7,8,9,11,12,14,15,16,17-tetradecahydrocyclopenta[a]phenanthren-17-yl)pentanethioic acid S-[2-[3-[[4-[[(5-adenin-9-yl-4-hydroxy-3-phosphonooxy-tetrahydrofuran-2-yl)methoxy-hydroxy-phosphoryl]oxy-hydroxy-phosphoryl]oxy-2-hydroxy-3,3-dimethyl-butanoyl]amino]propanoylamino]ethyl] ester

> <PUBCHEM_IUPAC_INCHI>
InChI=1S/C45H72N7O20P3S/c1-23(26-7-8-27-34-28(18-31(55)45(26,27)5)44(4)12-10-25(53)16-24(44)17-29(34)54)6-9-33(57)76-15-14-47-32(56)11-13-48-41(60)38(59)43(2,3)20-69-75(66,67)72-74(64,65)68-19-30-37(71-73(61,62)63)36(58)42(70-30)52-22-51-35-39(46)49-21-50-40(35)52/h21-24,26-31,34,36-38,42,54-55,58-59H,6-20H2,1-5H3,(H,47,56)(H,48,60)(H,64,65)(H,66,67)(H2,46,49,50)(H2,61,62,63)

> <PUBCHEM_IUPAC_INCHIKEY>
DABYNUYNLLSQQV-UHFFFAOYSA-N

> <PUBCHEM_XLOGP3_AA>
-2.3

> <PUBCHEM_EXACT_MASS>
1155.37656988

> <PUBCHEM_MOLECULAR_FORMULA>
C45H72N7O20P3S

> <PUBCHEM_MOLECULAR_WEIGHT>
1156.1

> <PUBCHEM_SMILES>
CC(CCC(=O)SCCNC(=O)CCNC(=O)C(C(C)(C)COP(=O)(O)OP(=O)(O)OCC1C(C(C(O1)N2C=NC3=C(N=CN=C32)N)O)OP(=O)(O)O)O)C4CCC5C4(C(CC6C5C(CC7C6(CCC(=O)C7)C)O)O)C

> <PUBCHEM_CONNECTIVITY_SMILES>
CC(CCC(=O)SCCNC(=O)CCNC(=O)C(C(C)(C)COP(=O)(O)OP(=O)(O)OCC1C(C(C(O1)N2C=NC3=C(N=CN=C32)N)O)OP(=O)(O)O)O)C4CCC5C4(C(CC6C5C(CC7C6(CCC(=O)C7)C)O)O)C

> <PUBCHEM_CACTVS_TPSA>
446

> <PUBCHEM_MONOISOTOPIC_WEIGHT>
1155.37656988

> <PUBCHEM_TOTAL_CHARGE>
0

> <PUBCHEM_HEAVY_ATOM_COUNT>
76

> <PUBCHEM_ATOM_DEF_STEREO_COUNT>
0

> <PUBCHEM_ATOM_UDEF_STEREO_COUNT>
15

> <PUBCHEM_BOND_DEF_STEREO_COUNT>
0

> <PUBCHEM_BOND_UDEF_STEREO_COUNT>
0

> <PUBCHEM_ISOTOPIC_ATOM_COUNT>
0

> <PUBCHEM_COMPONENT_COUNT>
1

> <PUBCHEM_CACTVS_TAUTO_COUNT>
-1

> <PUBCHEM_COORDINATE_TYPE>
1
5
255

> <PUBCHEM_BONDANNOTATIONS>
61  11  3
63  12  3
66  15  3
65  27  3
27  69  8
27  70  8
28  70  8
28  72  8
29  69  8
29  76  8
30  75  8
30  76  8
32  46  3
33  40  3
34  42  3
35  39  3
36  48  3
37  43  3
41  44  3
47  53  3
38  5  3
42  6  3
64  67  3
69  72  8
72  75  8

$$$$
