685
  -OEChem-08152603052D

 59 61  0     1  0  0  0  0  0999 V2000
    6.3301    0.7699    0.0000 P   0  0  3  0  0  0  0  0  0  0  0  0
    5.4641   -0.7301    0.0000 P   0  0  3  0  0  0  0  0  0  0  0  0
    8.9757    2.3632    0.0000 O   0  0  0  0  0  0  0  0  0  0  0  0
    7.4236    4.4336    0.0000 O   0  0  0  0  0  0  0  0  0  0  0  0
    7.1962    1.2700    0.0000 O   0  0  0  0  0  0  0  0  0  0  0  0
    3.7320   -1.7300    0.0000 O   0  0  0  0  0  0  0  0  0  0  0  0
    5.4641   -1.7300    0.0000 O   0  0  0  0  0  0  0  0  0  0  0  0
    5.4641   -3.7300    0.0000 O   0  0  0  0  0  0  0  0  0  0  0  0
    5.4641    0.2699    0.0000 O   0  0  0  0  0  0  0  0  0  0  0  0
    3.7320   -4.7300    0.0000 O   0  0  0  0  0  0  0  0  0  0  0  0
   10.4583    1.2793    0.0000 O   0  0  0  0  0  0  0  0  0  0  0  0
    2.0000   -3.7300    0.0000 O   0  0  0  0  0  0  0  0  0  0  0  0
    5.8301    1.6360    0.0000 O   0  0  0  0  0  0  0  0  0  0  0  0
    6.8301   -0.0961    0.0000 O   0  0  0  0  0  0  0  0  0  0  0  0
    6.4641   -0.7301    0.0000 O   0  0  0  0  0  0  0  0  0  0  0  0
   13.6229    2.6882    0.0000 O   0  0  0  0  0  0  0  0  0  0  0  0
    4.4641   -0.7301    0.0000 O   0  0  0  0  0  0  0  0  0  0  0  0
   10.6394    3.0018    0.0000 N   0  0  0  0  0  0  0  0  0  0  0  0
   12.0406    1.9838    0.0000 N   0  0  0  0  0  0  0  0  0  0  0  0
    8.1667    3.7645    0.0000 C   0  0  3  0  0  0  0  0  0  0  0  0
    8.0622    2.7700    0.0000 C   0  0  3  0  0  0  0  0  0  0  0  0
    9.1448    3.9724    0.0000 C   0  0  0  0  0  0  0  0  0  0  0  0
    9.6448    3.1064    0.0000 C   0  0  3  0  0  0  0  0  0  0  0  0
    7.1962    2.2700    0.0000 C   0  0  0  0  0  0  0  0  0  0  0  0
    4.5981   -3.2300    0.0000 C   0  0  3  0  0  0  0  0  0  0  0  0
    4.5981   -2.2300    0.0000 C   0  0  3  0  0  0  0  0  0  0  0  0
    3.7320   -3.7300    0.0000 C   0  0  3  0  0  0  0  0  0  0  0  0
   11.2272    3.8108    0.0000 C   0  0  0  0  0  0  0  0  0  0  0  0
   11.0461    2.0883    0.0000 C   0  0  0  0  0  0  0  0  0  0  0  0
    2.8660   -2.2300    0.0000 C   0  0  3  0  0  0  0  0  0  0  0  0
    2.8660   -3.2300    0.0000 C   0  0  0  0  0  0  0  0  0  0  0  0
   12.2217    3.7063    0.0000 C   0  0  0  0  0  0  0  0  0  0  0  0
    2.0000   -1.7300    0.0000 C   0  0  0  0  0  0  0  0  0  0  0  0
   12.6284    2.7928    0.0000 C   0  0  0  0  0  0  0  0  0  0  0  0
   12.8095    4.5153    0.0000 C   0  0  0  0  0  0  0  0  0  0  0  0
    7.5879    3.5423    0.0000 H   0  0  0  0  0  0  0  0  0  0  0  0
    8.0946    2.1508    0.0000 H   0  0  0  0  0  0  0  0  0  0  0  0
    9.7112    4.2246    0.0000 H   0  0  0  0  0  0  0  0  0  0  0  0
    8.9533    4.5620    0.0000 H   0  0  0  0  0  0  0  0  0  0  0  0
    9.9825    3.6263    0.0000 H   0  0  0  0  0  0  0  0  0  0  0  0
    6.9841    2.8526    0.0000 H   0  0  0  0  0  0  0  0  0  0  0  0
    6.5856    2.1623    0.0000 H   0  0  0  0  0  0  0  0  0  0  0  0
    4.5981   -3.8500    0.0000 H   0  0  0  0  0  0  0  0  0  0  0  0
    7.5525    5.0400    0.0000 H   0  0  0  0  0  0  0  0  0  0  0  0
    4.5981   -1.6100    0.0000 H   0  0  0  0  0  0  0  0  0  0  0  0
    3.1951   -4.0400    0.0000 H   0  0  0  0  0  0  0  0  0  0  0  0
   10.9750    4.3772    0.0000 H   0  0  0  0  0  0  0  0  0  0  0  0
    2.8660   -1.6100    0.0000 H   0  0  0  0  0  0  0  0  0  0  0  0
   12.2928    1.4174    0.0000 H   0  0  0  0  0  0  0  0  0  0  0  0
    2.3100   -1.1931    0.0000 H   0  0  0  0  0  0  0  0  0  0  0  0
    1.4631   -1.4200    0.0000 H   0  0  0  0  0  0  0  0  0  0  0  0
    1.6900   -2.2670    0.0000 H   0  0  0  0  0  0  0  0  0  0  0  0
    5.4641   -4.3501    0.0000 H   0  0  0  0  0  0  0  0  0  0  0  0
    3.1951   -5.0400    0.0000 H   0  0  0  0  0  0  0  0  0  0  0  0
   13.3111    4.1509    0.0000 H   0  0  0  0  0  0  0  0  0  0  0  0
   13.1739    5.0169    0.0000 H   0  0  0  0  0  0  0  0  0  0  0  0
   12.3079    4.8798    0.0000 H   0  0  0  0  0  0  0  0  0  0  0  0
    5.2101    1.6360    0.0000 H   0  0  0  0  0  0  0  0  0  0  0  0
    6.7741   -1.2670    0.0000 H   0  0  0  0  0  0  0  0  0  0  0  0
  1  5  1  0  0  0  0
  1  9  1  0  0  0  0
  1 13  1  0  0  0  0
  1 14  2  0  0  0  0
  2  7  1  0  0  0  0
  2  9  1  0  0  0  0
  2 15  1  0  0  0  0
  2 17  2  0  0  0  0
  3 21  1  0  0  0  0
  3 23  1  0  0  0  0
  4 20  1  0  0  0  0
  4 44  1  0  0  0  0
  5 24  1  0  0  0  0
  6 26  1  0  0  0  0
  6 30  1  0  0  0  0
  7 26  1  0  0  0  0
  8 25  1  0  0  0  0
  8 53  1  0  0  0  0
 10 27  1  0  0  0  0
 10 54  1  0  0  0  0
 11 29  2  0  0  0  0
 12 31  2  0  0  0  0
 13 58  1  0  0  0  0
 15 59  1  0  0  0  0
 16 34  2  0  0  0  0
 18 23  1  0  0  0  0
 18 28  1  0  0  0  0
 18 29  1  0  0  0  0
 19 29  1  0  0  0  0
 19 34  1  0  0  0  0
 19 49  1  0  0  0  0
 20 21  1  0  0  0  0
 20 22  1  0  0  0  0
 20 36  1  0  0  0  0
 21 24  1  0  0  0  0
 21 37  1  0  0  0  0
 22 23  1  0  0  0  0
 22 38  1  0  0  0  0
 22 39  1  0  0  0  0
 23 40  1  0  0  0  0
 24 41  1  0  0  0  0
 24 42  1  0  0  0  0
 25 26  1  0  0  0  0
 25 27  1  0  0  0  0
 25 43  1  0  0  0  0
 26 45  1  0  0  0  0
 27 31  1  0  0  0  0
 27 46  1  0  0  0  0
 28 32  2  0  0  0  0
 28 47  1  0  0  0  0
 30 31  1  0  0  0  0
 30 33  1  0  0  0  0
 30 48  1  0  0  0  0
 32 34  1  0  0  0  0
 32 35  1  0  0  0  0
 33 50  1  0  0  0  0
 33 51  1  0  0  0  0
 33 52  1  0  0  0  0
 35 55  1  0  0  0  0
 35 56  1  0  0  0  0
 35 57  1  0  0  0  0
M  END
> <PUBCHEM_COMPOUND_CID>
685

> <PUBCHEM_COMPOUND_CANONICALIZED>
1

> <PUBCHEM_CACTVS_COMPLEXITY>
1000

> <PUBCHEM_CACTVS_HBOND_ACCEPTOR>
15

> <PUBCHEM_CACTVS_HBOND_DONOR>
6

> <PUBCHEM_CACTVS_ROTATABLE_BOND>
8

> <PUBCHEM_CACTVS_SUBSKEYS>
AAADceB7PAMAAAAAAAAAAAAAAAAAASAAAAAkQAAAAAAAAAAAAAAAHgAQCCAADBTxgAcDCAPABxCIQoFWUIKAAAAAAAAAAAFIAECREBYAgQQOQAAPJyIHAMHycAYAAAAAAAAAAAAAAAAAAAAAAAAAAAAAAA==

> <PUBCHEM_IUPAC_OPENEYE_NAME>
(3,4-dihydroxy-6-methyl-5-oxo-tetrahydropyran-2-yl) [hydroxy-[[3-hydroxy-5-(5-methyl-2,4-dioxo-pyrimidin-1-yl)tetrahydrofuran-2-yl]methoxy]phosphoryl] hydrogen phosphate

> <PUBCHEM_IUPAC_CAS_NAME>
(3,4-dihydroxy-6-methyl-5-oxo-2-oxanyl) [hydroxy-[[3-hydroxy-5-(5-methyl-2,4-dioxo-1-pyrimidinyl)-2-oxolanyl]methoxy]phosphoryl] hydrogen phosphate

> <PUBCHEM_IUPAC_NAME_MARKUP>
(3,4-dihydroxy-6-methyl-5-oxooxan-2-yl) [hydroxy-[[3-hydroxy-5-(5-methyl-2,4-dioxopyrimidin-1-yl)oxolan-2-yl]methoxy]phosphoryl] hydrogen phosphate

> <PUBCHEM_IUPAC_NAME>
(3,4-dihydroxy-6-methyl-5-oxooxan-2-yl) [hydroxy-[[3-hydroxy-5-(5-methyl-2,4-dioxopyrimidin-1-yl)oxolan-2-yl]methoxy]phosphoryl] hydrogen phosphate

> <PUBCHEM_IUPAC_SYSTEMATIC_NAME>
[[5-[5-methyl-2,4-bis(oxidanylidene)pyrimidin-1-yl]-3-oxidanyl-oxolan-2-yl]methoxy-oxidanyl-phosphoryl] [6-methyl-3,4-bis(oxidanyl)-5-oxidanylidene-oxan-2-yl] hydrogen phosphate

> <PUBCHEM_IUPAC_TRADITIONAL_NAME>
(3,4-dihydroxy-5-keto-6-methyl-tetrahydropyran-2-yl) [[5-(2,4-diketo-5-methyl-pyrimidin-1-yl)-3-hydroxy-tetrahydrofuran-2-yl]methoxy-hydroxy-phosphoryl] hydrogen phosphate

> <PUBCHEM_IUPAC_INCHI>
InChI=1S/C16H24N2O15P2/c1-6-4-18(16(24)17-14(6)23)10-3-8(19)9(31-10)5-29-34(25,26)33-35(27,28)32-15-13(22)12(21)11(20)7(2)30-15/h4,7-10,12-13,15,19,21-22H,3,5H2,1-2H3,(H,25,26)(H,27,28)(H,17,23,24)

> <PUBCHEM_IUPAC_INCHIKEY>
PSXWNITXWWECNY-UHFFFAOYSA-N

> <PUBCHEM_XLOGP3_AA>
-4.4

> <PUBCHEM_EXACT_MASS>
546.06519206

> <PUBCHEM_MOLECULAR_FORMULA>
C16H24N2O15P2

> <PUBCHEM_MOLECULAR_WEIGHT>
546.31

> <PUBCHEM_SMILES>
CC1C(=O)C(C(C(O1)OP(=O)(O)OP(=O)(O)OCC2C(CC(O2)N3C=C(C(=O)NC3=O)C)O)O)O

> <PUBCHEM_CONNECTIVITY_SMILES>
CC1C(=O)C(C(C(O1)OP(=O)(O)OP(=O)(O)OCC2C(CC(O2)N3C=C(C(=O)NC3=O)C)O)O)O

> <PUBCHEM_CACTVS_TPSA>
248

> <PUBCHEM_MONOISOTOPIC_WEIGHT>
546.06519206

> <PUBCHEM_TOTAL_CHARGE>
0

> <PUBCHEM_HEAVY_ATOM_COUNT>
35

> <PUBCHEM_ATOM_DEF_STEREO_COUNT>
0

> <PUBCHEM_ATOM_UDEF_STEREO_COUNT>
7

> <PUBCHEM_BOND_DEF_STEREO_COUNT>
0

> <PUBCHEM_BOND_UDEF_STEREO_COUNT>
0

> <PUBCHEM_ISOTOPIC_ATOM_COUNT>
0

> <PUBCHEM_COMPONENT_COUNT>
1

> <PUBCHEM_CACTVS_TAUTO_COUNT>
-1

> <PUBCHEM_COORDINATE_TYPE>
1
5
255

> <PUBCHEM_BONDANNOTATIONS>
27  10  3
23  18  3
18  28  8
18  29  8
19  29  8
19  34  8
21  24  3
28  32  8
30  33  3
32  34  8
20  4  3
26  7  3
25  8  3

$$$$
