1059
  -OEChem-08152603393D

 16 16  0     1  0  0  0  0  0999 V2000
   -2.6932    0.6966    0.5054 O   0  0  0  0  0  0  0  0  0  0  0  0
    2.3071    1.2944    0.1492 O   0  0  0  0  0  0  0  0  0  0  0  0
    2.3380   -0.9442   -0.2790 O   0  0  0  0  0  0  0  0  0  0  0  0
   -0.2135   -1.2601    0.3500 N   0  0  0  0  0  0  0  0  0  0  0  0
   -0.5290    0.9476   -0.5316 C   0  0  0  0  0  0  0  0  0  0  0  0
    0.3001    0.1217    0.4434 C   0  0  2  0  0  0  0  0  0  0  0  0
   -1.8578    0.2258   -0.5281 C   0  0  1  0  0  0  0  0  0  0  0  0
   -1.3928   -1.1475   -0.1720 C   0  0  0  0  0  0  0  0  0  0  0  0
    1.7411    0.0658    0.0627 C   0  0  0  0  0  0  0  0  0  0  0  0
   -0.0875    0.9243   -1.5359 H   0  0  0  0  0  0  0  0  0  0  0  0
   -0.6031    1.9922   -0.2129 H   0  0  0  0  0  0  0  0  0  0  0  0
    0.2057    0.4682    1.4789 H   0  0  0  0  0  0  0  0  0  0  0  0
   -2.3737    0.2585   -1.4900 H   0  0  0  0  0  0  0  0  0  0  0  0
   -2.0507   -2.0128   -0.3376 H   0  0  0  0  0  0  0  0  0  0  0  0
   -3.5165    0.1797    0.4758 H   0  0  0  0  0  0  0  0  0  0  0  0
    3.2566    1.2786   -0.0971 H   0  0  0  0  0  0  0  0  0  0  0  0
  1  7  1  0  0  0  0
  1 15  1  0  0  0  0
  2  9  1  0  0  0  0
  2 16  1  0  0  0  0
  3  9  2  0  0  0  0
  4  6  1  0  0  0  0
  4  8  2  0  0  0  0
  5  6  1  0  0  0  0
  5  7  1  0  0  0  0
  5 10  1  0  0  0  0
  5 11  1  0  0  0  0
  6  9  1  0  0  0  0
  6 12  1  0  0  0  0
  7  8  1  0  0  0  0
  7 13  1  0  0  0  0
  8 14  1  0  0  0  0
M  END
> <PUBCHEM_COMPOUND_CID>
1059

> <PUBCHEM_CONFORMER_RMSD>
0.4

> <PUBCHEM_CONFORMER_DIVERSEORDER>
2
11
1
8
4
14
3
15
6
7
12
10
5
9
13

> <PUBCHEM_MMFF94_PARTIAL_CHARGES>
11
1 -0.68
14 0.06
15 0.4
16 0.5
2 -0.65
3 -0.57
4 -0.7
6 0.31
7 0.34
8 0.33
9 0.66

> <PUBCHEM_EFFECTIVE_ROTOR_COUNT>
1.6

> <PUBCHEM_PHARMACOPHORE_FEATURES>
7
1 1 acceptor
1 1 donor
1 2 acceptor
1 3 acceptor
1 4 acceptor
3 2 3 9 anion
5 4 5 6 7 8 rings

> <PUBCHEM_HEAVY_ATOM_COUNT>
9

> <PUBCHEM_ATOM_DEF_STEREO_COUNT>
0

> <PUBCHEM_ATOM_UDEF_STEREO_COUNT>
2

> <PUBCHEM_BOND_DEF_STEREO_COUNT>
0

> <PUBCHEM_BOND_UDEF_STEREO_COUNT>
0

> <PUBCHEM_ISOTOPIC_ATOM_COUNT>
0

> <PUBCHEM_COMPONENT_COUNT>
1

> <PUBCHEM_CACTVS_TAUTO_COUNT>
1

> <PUBCHEM_CONFORMER_ID>
0000042300000002

> <PUBCHEM_MMFF94_ENERGY>
11.0023

> <PUBCHEM_FEATURE_SELFOVERLAP>
35.587

> <PUBCHEM_SHAPE_FINGERPRINT>
10857977 72 17312830389643297849
14325111 11 18411418406171802641
14390081 3 18129657629225775648
15310529 11 17203322359794585821
16714656 1 18260829276214251863
21040471 1 18335134293357053231
23552423 10 18260545649543620670
24536 1 18270100414094246824
29004967 10 16630522946957503886
369184 2 18410568509078698257
5084963 1 18342447110970855053

> <PUBCHEM_SHAPE_MULTIPOLES>
162.63
3.32
1.29
0.71
0.48
0.13
0.02
-0.48
-0.07
0.09
0.02
-0.14
-0.04
0.04

> <PUBCHEM_SHAPE_SELFOVERLAP>
332.451

> <PUBCHEM_SHAPE_VOLUME>
95.3

> <PUBCHEM_COORDINATE_TYPE>
2
5
10

$$$$
