410
  -OEChem-08152602442D

 47 49  0     1  0  0  0  0  0999 V2000
    5.1350    0.3644    0.0000 O   0  0  0  0  0  0  0  0  0  0  0  0
    6.8671    2.3644    0.0000 O   0  0  0  0  0  0  0  0  0  0  0  0
    5.1350    3.3644    0.0000 O   0  0  0  0  0  0  0  0  0  0  0  0
    3.4030    2.3644    0.0000 O   0  0  0  0  0  0  0  0  0  0  0  0
    2.5369    0.8644    0.0000 O   0  0  0  0  0  0  0  0  0  0  0  0
    3.4030   -0.6356    0.0000 O   0  0  0  0  0  0  0  0  0  0  0  0
    8.5421   -2.7234    0.0000 N   0  0  3  0  0  0  0  0  0  0  0  0
    6.8671    0.3644    0.0000 N   0  3  0  0  0  0  0  0  0  0  0  0
    7.7331   -2.1356    0.0000 C   0  0  3  0  0  0  0  0  0  0  0  0
    6.0010    0.8644    0.0000 C   0  0  3  0  0  0  0  0  0  0  0  0
    6.0010    1.8644    0.0000 C   0  0  3  0  0  0  0  0  0  0  0  0
    6.9241   -2.7234    0.0000 C   0  0  0  0  0  0  0  0  0  0  0  0
    5.1350    2.3644    0.0000 C   0  0  3  0  0  0  0  0  0  0  0  0
    4.2690    1.8644    0.0000 C   0  0  3  0  0  0  0  0  0  0  0  0
    7.2331   -3.6744    0.0000 C   0  0  0  0  0  0  0  0  0  0  0  0
    8.2331   -3.6744    0.0000 C   0  0  0  0  0  0  0  0  0  0  0  0
    4.2690    0.8644    0.0000 C   0  0  3  0  0  0  0  0  0  0  0  0
    7.7331   -1.1356    0.0000 C   0  0  0  0  0  0  0  0  0  0  0  0
    6.8671   -0.6356    0.0000 C   0  0  0  0  0  0  0  0  0  0  0  0
    9.4932   -2.4144    0.0000 C   0  0  0  0  0  0  0  0  0  0  0  0
    8.5991   -0.6356    0.0000 C   0  0  0  0  0  0  0  0  0  0  0  0
    7.7331    0.8644    0.0000 C   0  0  0  0  0  0  0  0  0  0  0  0
    8.5991    0.3644    0.0000 C   0  0  0  0  0  0  0  0  0  0  0  0
    3.4030    0.3644    0.0000 C   0  0  0  0  0  0  0  0  0  0  0  0
    8.2855   -1.8541    0.0000 H   0  0  0  0  0  0  0  0  0  0  0  0
    6.5380    1.1744    0.0000 H   0  0  0  0  0  0  0  0  0  0  0  0
    6.0010    2.4844    0.0000 H   0  0  0  0  0  0  0  0  0  0  0  0
    4.5981    2.6744    0.0000 H   0  0  0  0  0  0  0  0  0  0  0  0
    6.6141   -2.1864    0.0000 H   0  0  0  0  0  0  0  0  0  0  0  0
    6.3577   -2.9755    0.0000 H   0  0  0  0  0  0  0  0  0  0  0  0
    4.8059    1.5544    0.0000 H   0  0  0  0  0  0  0  0  0  0  0  0
    6.6266   -3.8033    0.0000 H   0  0  0  0  0  0  0  0  0  0  0  0
    7.2979   -4.2910    0.0000 H   0  0  0  0  0  0  0  0  0  0  0  0
    8.1683   -4.2910    0.0000 H   0  0  0  0  0  0  0  0  0  0  0  0
    8.8395   -3.8033    0.0000 H   0  0  0  0  0  0  0  0  0  0  0  0
    4.2690    0.2444    0.0000 H   0  0  0  0  0  0  0  0  0  0  0  0
    6.3301   -0.9456    0.0000 H   0  0  0  0  0  0  0  0  0  0  0  0
    9.6848   -3.0040    0.0000 H   0  0  0  0  0  0  0  0  0  0  0  0
   10.0828   -2.2228    0.0000 H   0  0  0  0  0  0  0  0  0  0  0  0
    9.3016   -1.8247    0.0000 H   0  0  0  0  0  0  0  0  0  0  0  0
    9.1360   -0.9456    0.0000 H   0  0  0  0  0  0  0  0  0  0  0  0
    7.7331    1.4844    0.0000 H   0  0  0  0  0  0  0  0  0  0  0  0
    9.1360    0.6744    0.0000 H   0  0  0  0  0  0  0  0  0  0  0  0
    6.8671    2.9844    0.0000 H   0  0  0  0  0  0  0  0  0  0  0  0
    4.5981    3.6744    0.0000 H   0  0  0  0  0  0  0  0  0  0  0  0
    3.4030    2.9844    0.0000 H   0  0  0  0  0  0  0  0  0  0  0  0
    2.0000    0.5544    0.0000 H   0  0  0  0  0  0  0  0  0  0  0  0
  1 10  1  0  0  0  0
  1 17  1  0  0  0  0
  2 11  1  0  0  0  0
  2 44  1  0  0  0  0
  3 13  1  0  0  0  0
  3 45  1  0  0  0  0
  4 14  1  0  0  0  0
  4 46  1  0  0  0  0
  5 24  1  0  0  0  0
  5 47  1  0  0  0  0
  6 24  2  0  0  0  0
  7  9  1  0  0  0  0
  7 16  1  0  0  0  0
  7 20  1  0  0  0  0
  8 10  1  0  0  0  0
  8 19  1  0  0  0  0
  8 22  2  0  0  0  0
  9 12  1  0  0  0  0
  9 18  1  0  0  0  0
  9 25  1  0  0  0  0
 10 11  1  0  0  0  0
 10 26  1  0  0  0  0
 11 13  1  0  0  0  0
 11 27  1  0  0  0  0
 12 15  1  0  0  0  0
 12 29  1  0  0  0  0
 12 30  1  0  0  0  0
 13 14  1  0  0  0  0
 13 28  1  0  0  0  0
 14 17  1  0  0  0  0
 14 31  1  0  0  0  0
 15 16  1  0  0  0  0
 15 32  1  0  0  0  0
 15 33  1  0  0  0  0
 16 34  1  0  0  0  0
 16 35  1  0  0  0  0
 17 24  1  0  0  0  0
 17 36  1  0  0  0  0
 18 19  2  0  0  0  0
 18 21  1  0  0  0  0
 19 37  1  0  0  0  0
 20 38  1  0  0  0  0
 20 39  1  0  0  0  0
 20 40  1  0  0  0  0
 21 23  2  0  0  0  0
 21 41  1  0  0  0  0
 22 23  1  0  0  0  0
 22 42  1  0  0  0  0
 23 43  1  0  0  0  0
M  CHG  1   8   1
M  END
> <PUBCHEM_COMPOUND_CID>
410

> <PUBCHEM_COMPOUND_CANONICALIZED>
1

> <PUBCHEM_CACTVS_COMPLEXITY>
464

> <PUBCHEM_CACTVS_HBOND_ACCEPTOR>
7

> <PUBCHEM_CACTVS_HBOND_DONOR>
4

> <PUBCHEM_CACTVS_ROTATABLE_BOND>
3

> <PUBCHEM_CACTVS_SUBSKEYS>
AAADceB7OAAAAAAAAAAAAAAAAAAAAWAAAAAsSAAAAAAAAAABgAAAHgAACAAADDzhmgY+iJMMFgCoAjD3TAKCgCAxAiAI2CF4ZJgLMPbA0ZWOYAhnoADbyAf6/IZOAAAAAAAAAAAAAAAAAAAAAAAAAAAAAA==

> <PUBCHEM_IUPAC_OPENEYE_NAME>
3,4,5-trihydroxy-6-[3-(1-methylpyrrolidin-2-yl)pyridin-1-ium-1-yl]tetrahydropyran-2-carboxylic acid

> <PUBCHEM_IUPAC_CAS_NAME>
3,4,5-trihydroxy-6-[3-(1-methyl-2-pyrrolidinyl)-1-pyridin-1-iumyl]-2-oxanecarboxylic acid

> <PUBCHEM_IUPAC_NAME_MARKUP>
3,4,5-trihydroxy-6-[3-(1-methylpyrrolidin-2-yl)pyridin-1-ium-1-yl]oxane-2-carboxylic acid

> <PUBCHEM_IUPAC_NAME>
3,4,5-trihydroxy-6-[3-(1-methylpyrrolidin-2-yl)pyridin-1-ium-1-yl]oxane-2-carboxylic acid

> <PUBCHEM_IUPAC_SYSTEMATIC_NAME>
6-[3-(1-methylpyrrolidin-2-yl)pyridin-1-ium-1-yl]-3,4,5-tris(oxidanyl)oxane-2-carboxylic acid

> <PUBCHEM_IUPAC_TRADITIONAL_NAME>
3,4,5-trihydroxy-6-[3-(1-methylpyrrolidin-2-yl)pyridin-1-ium-1-yl]tetrahydropyran-2-carboxylic acid

> <PUBCHEM_IUPAC_INCHI>
InChI=1S/C16H22N2O6/c1-17-6-3-5-10(17)9-4-2-7-18(8-9)15-13(21)11(19)12(20)14(24-15)16(22)23/h2,4,7-8,10-15,19-21H,3,5-6H2,1H3/p+1

> <PUBCHEM_IUPAC_INCHIKEY>
SAWAIULJDYFLPD-UHFFFAOYSA-O

> <PUBCHEM_XLOGP3_AA>
-2.9

> <PUBCHEM_EXACT_MASS>
339.15561146

> <PUBCHEM_MOLECULAR_FORMULA>
C16H23N2O6+

> <PUBCHEM_MOLECULAR_WEIGHT>
339.36

> <PUBCHEM_SMILES>
CN1CCCC1C2=C[N+](=CC=C2)C3C(C(C(C(O3)C(=O)O)O)O)O

> <PUBCHEM_CONNECTIVITY_SMILES>
CN1CCCC1C2=C[N+](=CC=C2)C3C(C(C(C(O3)C(=O)O)O)O)O

> <PUBCHEM_CACTVS_TPSA>
114

> <PUBCHEM_MONOISOTOPIC_WEIGHT>
339.15561146

> <PUBCHEM_TOTAL_CHARGE>
1

> <PUBCHEM_HEAVY_ATOM_COUNT>
24

> <PUBCHEM_ATOM_DEF_STEREO_COUNT>
0

> <PUBCHEM_ATOM_UDEF_STEREO_COUNT>
6

> <PUBCHEM_BOND_DEF_STEREO_COUNT>
0

> <PUBCHEM_BOND_UDEF_STEREO_COUNT>
0

> <PUBCHEM_ISOTOPIC_ATOM_COUNT>
0

> <PUBCHEM_COMPONENT_COUNT>
1

> <PUBCHEM_CACTVS_TAUTO_COUNT>
-1

> <PUBCHEM_COORDINATE_TYPE>
1
5
255

> <PUBCHEM_BONDANNOTATIONS>
17  24  3
18  19  8
18  21  8
11  2  3
21  23  8
22  23  8
13  3  3
14  4  3
10  8  3
8  19  8
8  22  8
9  18  3

$$$$
