411
  -OEChem-08152602442D

 46 48  0     1  0  0  0  0  0999 V2000
    5.1350    0.7689    0.0000 O   0  0  0  0  0  0  0  0  0  0  0  0
    6.8671    2.7689    0.0000 O   0  0  0  0  0  0  0  0  0  0  0  0
    5.1350    3.7689    0.0000 O   0  0  0  0  0  0  0  0  0  0  0  0
    3.4030    2.7689    0.0000 O   0  0  0  0  0  0  0  0  0  0  0  0
    8.8209   -4.0789    0.0000 O   0  0  0  0  0  0  0  0  0  0  0  0
    2.5369    1.2689    0.0000 O   0  0  0  0  0  0  0  0  0  0  0  0
    3.4030   -0.2311    0.0000 O   0  0  0  0  0  0  0  0  0  0  0  0
    6.8671    0.7689    0.0000 N   0  3  0  0  0  0  0  0  0  0  0  0
    8.5421   -2.3189    0.0000 N   0  0  0  0  0  0  0  0  0  0  0  0
    6.0010    1.2689    0.0000 C   0  0  3  0  0  0  0  0  0  0  0  0
    6.0010    2.2689    0.0000 C   0  0  3  0  0  0  0  0  0  0  0  0
    5.1350    2.7689    0.0000 C   0  0  3  0  0  0  0  0  0  0  0  0
    4.2690    2.2689    0.0000 C   0  0  3  0  0  0  0  0  0  0  0  0
    7.7331   -1.7311    0.0000 C   0  0  3  0  0  0  0  0  0  0  0  0
    4.2690    1.2689    0.0000 C   0  0  3  0  0  0  0  0  0  0  0  0
    6.9241   -2.3189    0.0000 C   0  0  0  0  0  0  0  0  0  0  0  0
    7.7331   -0.7311    0.0000 C   0  0  0  0  0  0  0  0  0  0  0  0
    6.8671   -0.2311    0.0000 C   0  0  0  0  0  0  0  0  0  0  0  0
    7.2331   -3.2699    0.0000 C   0  0  0  0  0  0  0  0  0  0  0  0
    8.2331   -3.2699    0.0000 C   0  0  0  0  0  0  0  0  0  0  0  0
    7.7331    1.2689    0.0000 C   0  0  0  0  0  0  0  0  0  0  0  0
    8.5991   -0.2311    0.0000 C   0  0  0  0  0  0  0  0  0  0  0  0
    3.4030    0.7689    0.0000 C   0  0  0  0  0  0  0  0  0  0  0  0
    8.5991    0.7689    0.0000 C   0  0  0  0  0  0  0  0  0  0  0  0
    9.4932   -2.0098    0.0000 C   0  0  0  0  0  0  0  0  0  0  0  0
    6.5380    1.5789    0.0000 H   0  0  0  0  0  0  0  0  0  0  0  0
    6.0010    2.8889    0.0000 H   0  0  0  0  0  0  0  0  0  0  0  0
    4.5981    3.0789    0.0000 H   0  0  0  0  0  0  0  0  0  0  0  0
    4.8059    1.9589    0.0000 H   0  0  0  0  0  0  0  0  0  0  0  0
    8.2855   -1.4496    0.0000 H   0  0  0  0  0  0  0  0  0  0  0  0
    4.2690    0.6489    0.0000 H   0  0  0  0  0  0  0  0  0  0  0  0
    6.6141   -1.7819    0.0000 H   0  0  0  0  0  0  0  0  0  0  0  0
    6.3577   -2.5710    0.0000 H   0  0  0  0  0  0  0  0  0  0  0  0
    6.3301   -0.5411    0.0000 H   0  0  0  0  0  0  0  0  0  0  0  0
    6.6266   -3.3988    0.0000 H   0  0  0  0  0  0  0  0  0  0  0  0
    7.2979   -3.8865    0.0000 H   0  0  0  0  0  0  0  0  0  0  0  0
    7.7331    1.8889    0.0000 H   0  0  0  0  0  0  0  0  0  0  0  0
    9.1360   -0.5411    0.0000 H   0  0  0  0  0  0  0  0  0  0  0  0
    6.8671    3.3889    0.0000 H   0  0  0  0  0  0  0  0  0  0  0  0
    4.5981    4.0789    0.0000 H   0  0  0  0  0  0  0  0  0  0  0  0
    9.1360    1.0789    0.0000 H   0  0  0  0  0  0  0  0  0  0  0  0
    3.4030    3.3889    0.0000 H   0  0  0  0  0  0  0  0  0  0  0  0
    9.6848   -2.5995    0.0000 H   0  0  0  0  0  0  0  0  0  0  0  0
   10.0828   -1.8182    0.0000 H   0  0  0  0  0  0  0  0  0  0  0  0
    9.3016   -1.4202    0.0000 H   0  0  0  0  0  0  0  0  0  0  0  0
    2.0000    0.9589    0.0000 H   0  0  0  0  0  0  0  0  0  0  0  0
  1 10  1  0  0  0  0
  1 15  1  0  0  0  0
  2 11  1  0  0  0  0
  2 39  1  0  0  0  0
  3 12  1  0  0  0  0
  3 40  1  0  0  0  0
  4 13  1  0  0  0  0
  4 42  1  0  0  0  0
  5 20  2  0  0  0  0
  6 23  1  0  0  0  0
  6 46  1  0  0  0  0
  7 23  2  0  0  0  0
  8 10  1  0  0  0  0
  8 18  1  0  0  0  0
  8 21  2  0  0  0  0
  9 14  1  0  0  0  0
  9 20  1  0  0  0  0
  9 25  1  0  0  0  0
 10 11  1  0  0  0  0
 10 26  1  0  0  0  0
 11 12  1  0  0  0  0
 11 27  1  0  0  0  0
 12 13  1  0  0  0  0
 12 28  1  0  0  0  0
 13 15  1  0  0  0  0
 13 29  1  0  0  0  0
 14 16  1  0  0  0  0
 14 17  1  0  0  0  0
 14 30  1  0  0  0  0
 15 23  1  0  0  0  0
 15 31  1  0  0  0  0
 16 19  1  0  0  0  0
 16 32  1  0  0  0  0
 16 33  1  0  0  0  0
 17 18  2  0  0  0  0
 17 22  1  0  0  0  0
 18 34  1  0  0  0  0
 19 20  1  0  0  0  0
 19 35  1  0  0  0  0
 19 36  1  0  0  0  0
 21 24  1  0  0  0  0
 21 37  1  0  0  0  0
 22 24  2  0  0  0  0
 22 38  1  0  0  0  0
 24 41  1  0  0  0  0
 25 43  1  0  0  0  0
 25 44  1  0  0  0  0
 25 45  1  0  0  0  0
M  CHG  1   8   1
M  END
> <PUBCHEM_COMPOUND_CID>
411

> <PUBCHEM_COMPOUND_CANONICALIZED>
1

> <PUBCHEM_CACTVS_COMPLEXITY>
531

> <PUBCHEM_CACTVS_HBOND_ACCEPTOR>
7

> <PUBCHEM_CACTVS_HBOND_DONOR>
4

> <PUBCHEM_CACTVS_ROTATABLE_BOND>
3

> <PUBCHEM_CACTVS_SUBSKEYS>
AAADceB7OAAAAAAAAAAAAAAAAAAAAWAAAAAsSAAAAAAAAAABgAAAHgAACAAADDzhmgY+iJMMFgCoAjH3XAKCgCAxAiAI2CF4ZJgLMPbA0ZWOYAhnpgDbyAf+/IbOAAAAAAAAAAAAAAAAAAAAAAAAAAAAAA==

> <PUBCHEM_IUPAC_OPENEYE_NAME>
3,4,5-trihydroxy-6-[3-(1-methyl-5-oxo-pyrrolidin-2-yl)pyridin-1-ium-1-yl]tetrahydropyran-2-carboxylic acid

> <PUBCHEM_IUPAC_CAS_NAME>
3,4,5-trihydroxy-6-[3-(1-methyl-5-oxo-2-pyrrolidinyl)-1-pyridin-1-iumyl]-2-oxanecarboxylic acid

> <PUBCHEM_IUPAC_NAME_MARKUP>
3,4,5-trihydroxy-6-[3-(1-methyl-5-oxopyrrolidin-2-yl)pyridin-1-ium-1-yl]oxane-2-carboxylic acid

> <PUBCHEM_IUPAC_NAME>
3,4,5-trihydroxy-6-[3-(1-methyl-5-oxopyrrolidin-2-yl)pyridin-1-ium-1-yl]oxane-2-carboxylic acid

> <PUBCHEM_IUPAC_SYSTEMATIC_NAME>
6-[3-(1-methyl-5-oxidanylidene-pyrrolidin-2-yl)pyridin-1-ium-1-yl]-3,4,5-tris(oxidanyl)oxane-2-carboxylic acid

> <PUBCHEM_IUPAC_TRADITIONAL_NAME>
3,4,5-trihydroxy-6-[3-(5-keto-1-methyl-pyrrolidin-2-yl)pyridin-1-ium-1-yl]tetrahydropyran-2-carboxylic acid

> <PUBCHEM_IUPAC_INCHI>
InChI=1S/C16H20N2O7/c1-17-9(4-5-10(17)19)8-3-2-6-18(7-8)15-13(22)11(20)12(21)14(25-15)16(23)24/h2-3,6-7,9,11-15,20-22H,4-5H2,1H3/p+1

> <PUBCHEM_IUPAC_INCHIKEY>
XWZCZWKUGIQPJD-UHFFFAOYSA-O

> <PUBCHEM_XLOGP3_AA>
-1.6

> <PUBCHEM_EXACT_MASS>
353.13487601

> <PUBCHEM_MOLECULAR_FORMULA>
C16H21N2O7+

> <PUBCHEM_MOLECULAR_WEIGHT>
353.35

> <PUBCHEM_SMILES>
CN1C(CCC1=O)C2=C[N+](=CC=C2)C3C(C(C(C(O3)C(=O)O)O)O)O

> <PUBCHEM_CONNECTIVITY_SMILES>
CN1C(CCC1=O)C2=C[N+](=CC=C2)C3C(C(C(C(O3)C(=O)O)O)O)O

> <PUBCHEM_CACTVS_TPSA>
131

> <PUBCHEM_MONOISOTOPIC_WEIGHT>
353.13487601

> <PUBCHEM_TOTAL_CHARGE>
1

> <PUBCHEM_HEAVY_ATOM_COUNT>
25

> <PUBCHEM_ATOM_DEF_STEREO_COUNT>
0

> <PUBCHEM_ATOM_UDEF_STEREO_COUNT>
6

> <PUBCHEM_BOND_DEF_STEREO_COUNT>
0

> <PUBCHEM_BOND_UDEF_STEREO_COUNT>
0

> <PUBCHEM_ISOTOPIC_ATOM_COUNT>
0

> <PUBCHEM_COMPONENT_COUNT>
1

> <PUBCHEM_CACTVS_TAUTO_COUNT>
-1

> <PUBCHEM_COORDINATE_TYPE>
1
5
255

> <PUBCHEM_BONDANNOTATIONS>
14  17  3
15  23  3
17  18  8
17  22  8
11  2  3
21  24  8
22  24  8
12  3  3
13  4  3
10  8  3
8  18  8
8  21  8

$$$$
