97
  -OEChem-08152602212D

 43 44  0     1  0  0  0  0  0999 V2000
    5.4641   -1.4050    0.0000 O   0  0  0  0  0  0  0  0  0  0  0  0
    7.1962    0.5950    0.0000 O   0  0  0  0  0  0  0  0  0  0  0  0
    4.5981    0.0950    0.0000 O   0  0  0  0  0  0  0  0  0  0  0  0
    7.1962   -2.4050    0.0000 O   0  0  0  0  0  0  0  0  0  0  0  0
    8.9282   -1.4050    0.0000 O   0  0  0  0  0  0  0  0  0  0  0  0
    8.9282    0.5950    0.0000 O   0  0  0  0  0  0  0  0  0  0  0  0
    3.7320   -2.4050    0.0000 O   0  0  0  0  0  0  0  0  0  0  0  0
    5.4641    1.5950    0.0000 O   0  0  0  0  0  0  0  0  0  0  0  0
    2.0000    0.5950    0.0000 O   0  0  0  0  0  0  0  0  0  0  0  0
    2.0000   -1.4050    0.0000 O   0  0  0  0  0  0  0  0  0  0  0  0
    4.5981    2.0950    0.0000 O   0  0  0  0  0  0  0  0  0  0  0  0
    6.3301   -0.9050    0.0000 C   0  0  3  0  0  0  0  0  0  0  0  0
    7.1962   -1.4050    0.0000 C   0  0  3  0  0  0  0  0  0  0  0  0
    6.3301    0.0950    0.0000 C   0  0  3  0  0  0  0  0  0  0  0  0
    8.0622   -0.9050    0.0000 C   0  0  3  0  0  0  0  0  0  0  0  0
    4.5981   -0.9050    0.0000 C   0  0  3  0  0  0  0  0  0  0  0  0
    8.0622    0.0950    0.0000 C   0  0  3  0  0  0  0  0  0  0  0  0
    3.7320   -1.4050    0.0000 C   0  0  3  0  0  0  0  0  0  0  0  0
    3.7320    0.5950    0.0000 C   0  0  3  0  0  0  0  0  0  0  0  0
    5.4641    0.5950    0.0000 C   0  0  0  0  0  0  0  0  0  0  0  0
    2.8660    0.0950    0.0000 C   0  0  3  0  0  0  0  0  0  0  0  0
    2.8660   -0.9050    0.0000 C   0  0  0  0  0  0  0  0  0  0  0  0
    3.7320    1.5950    0.0000 C   0  0  0  0  0  0  0  0  0  0  0  0
    6.3301   -1.5250    0.0000 H   0  0  0  0  0  0  0  0  0  0  0  0
    6.6592   -1.7150    0.0000 H   0  0  0  0  0  0  0  0  0  0  0  0
    6.3301    0.7150    0.0000 H   0  0  0  0  0  0  0  0  0  0  0  0
    8.0622   -1.5250    0.0000 H   0  0  0  0  0  0  0  0  0  0  0  0
    4.5981   -1.5250    0.0000 H   0  0  0  0  0  0  0  0  0  0  0  0
    8.0622    0.7150    0.0000 H   0  0  0  0  0  0  0  0  0  0  0  0
    3.1951   -1.7150    0.0000 H   0  0  0  0  0  0  0  0  0  0  0  0
    4.2690    0.9050    0.0000 H   0  0  0  0  0  0  0  0  0  0  0  0
    4.8535    0.7027    0.0000 H   0  0  0  0  0  0  0  0  0  0  0  0
    5.2520    0.0124    0.0000 H   0  0  0  0  0  0  0  0  0  0  0  0
    2.8660    0.7150    0.0000 H   0  0  0  0  0  0  0  0  0  0  0  0
    7.7331   -2.7150    0.0000 H   0  0  0  0  0  0  0  0  0  0  0  0
    3.5200    2.1776    0.0000 H   0  0  0  0  0  0  0  0  0  0  0  0
    3.1215    1.4873    0.0000 H   0  0  0  0  0  0  0  0  0  0  0  0
    9.4651   -1.0950    0.0000 H   0  0  0  0  0  0  0  0  0  0  0  0
    8.9282    1.2150    0.0000 H   0  0  0  0  0  0  0  0  0  0  0  0
    3.1951   -2.7150    0.0000 H   0  0  0  0  0  0  0  0  0  0  0  0
    6.0010    1.9050    0.0000 H   0  0  0  0  0  0  0  0  0  0  0  0
    2.0000    1.2150    0.0000 H   0  0  0  0  0  0  0  0  0  0  0  0
    4.5981    2.7150    0.0000 H   0  0  0  0  0  0  0  0  0  0  0  0
  1 12  1  0  0  0  0
  1 16  1  0  0  0  0
  2 14  1  0  0  0  0
  2 17  1  0  0  0  0
  3 16  1  0  0  0  0
  3 19  1  0  0  0  0
  4 13  1  0  0  0  0
  4 35  1  0  0  0  0
  5 15  1  0  0  0  0
  5 38  1  0  0  0  0
  6 17  1  0  0  0  0
  6 39  1  0  0  0  0
  7 18  1  0  0  0  0
  7 40  1  0  0  0  0
  8 20  1  0  0  0  0
  8 41  1  0  0  0  0
  9 21  1  0  0  0  0
  9 42  1  0  0  0  0
 10 22  2  0  0  0  0
 11 23  1  0  0  0  0
 11 43  1  0  0  0  0
 12 13  1  0  0  0  0
 12 14  1  0  0  0  0
 12 24  1  0  0  0  0
 13 15  1  0  0  0  0
 13 25  1  0  0  0  0
 14 20  1  0  0  0  0
 14 26  1  0  0  0  0
 15 17  1  0  0  0  0
 15 27  1  0  0  0  0
 16 18  1  0  0  0  0
 16 28  1  0  0  0  0
 17 29  1  0  0  0  0
 18 22  1  0  0  0  0
 18 30  1  0  0  0  0
 19 21  1  0  0  0  0
 19 23  1  0  0  0  0
 19 31  1  0  0  0  0
 20 32  1  0  0  0  0
 20 33  1  0  0  0  0
 21 22  1  0  0  0  0
 21 34  1  0  0  0  0
 23 36  1  0  0  0  0
 23 37  1  0  0  0  0
M  END
> <PUBCHEM_COMPOUND_CID>
97

> <PUBCHEM_COMPOUND_CANONICALIZED>
1

> <PUBCHEM_CACTVS_COMPLEXITY>
418

> <PUBCHEM_CACTVS_HBOND_ACCEPTOR>
11

> <PUBCHEM_CACTVS_HBOND_DONOR>
7

> <PUBCHEM_CACTVS_ROTATABLE_BOND>
4

> <PUBCHEM_CACTVS_SUBSKEYS>
AAADceBwPAAAAAAAAAAAAAAAAAAAAAAAAAAkSAAAAAAAAAAAAAAAGgAACAAACBSwgAMACAAABgAIAIAQAAIAAAAAAAAAAAFAAAAREBYAAAAiQAAFIAAHAAHCYAwAAAAAAAAAAAAAAAAAAAAAAAAAAAAAAA==

> <PUBCHEM_IUPAC_OPENEYE_NAME>
3,5-dihydroxy-2-(hydroxymethyl)-6-[4,5,6-trihydroxy-2-(hydroxymethyl)tetrahydropyran-3-yl]oxy-tetrahydropyran-4-one

> <PUBCHEM_IUPAC_CAS_NAME>
3,5-dihydroxy-2-(hydroxymethyl)-6-[[4,5,6-trihydroxy-2-(hydroxymethyl)-3-oxanyl]oxy]-4-oxanone

> <PUBCHEM_IUPAC_NAME_MARKUP>
3,5-dihydroxy-2-(hydroxymethyl)-6-[4,5,6-trihydroxy-2-(hydroxymethyl)oxan-3-yl]oxyoxan-4-one

> <PUBCHEM_IUPAC_NAME>
3,5-dihydroxy-2-(hydroxymethyl)-6-[4,5,6-trihydroxy-2-(hydroxymethyl)oxan-3-yl]oxyoxan-4-one

> <PUBCHEM_IUPAC_SYSTEMATIC_NAME>
2-(hydroxymethyl)-6-[2-(hydroxymethyl)-4,5,6-tris(oxidanyl)oxan-3-yl]oxy-3,5-bis(oxidanyl)oxan-4-one

> <PUBCHEM_IUPAC_TRADITIONAL_NAME>
3,5-dihydroxy-2-methylol-6-(4,5,6-trihydroxy-2-methylol-tetrahydropyran-3-yl)oxy-tetrahydropyran-4-one

> <PUBCHEM_IUPAC_INCHI>
InChI=1S/C12H20O11/c13-1-3-5(15)6(16)9(19)12(22-3)23-10-4(2-14)21-11(20)8(18)7(10)17/h3-5,7-15,17-20H,1-2H2

> <PUBCHEM_IUPAC_INCHIKEY>
HKKHTABTHSUDBP-UHFFFAOYSA-N

> <PUBCHEM_XLOGP3_AA>
-4.3

> <PUBCHEM_EXACT_MASS>
340.10056145

> <PUBCHEM_MOLECULAR_FORMULA>
C12H20O11

> <PUBCHEM_MOLECULAR_WEIGHT>
340.28

> <PUBCHEM_SMILES>
C(C1C(C(C(C(O1)O)O)O)OC2C(C(=O)C(C(O2)CO)O)O)O

> <PUBCHEM_CONNECTIVITY_SMILES>
C(C1C(C(C(C(O1)O)O)O)OC2C(C(=O)C(C(O2)CO)O)O)O

> <PUBCHEM_CACTVS_TPSA>
186

> <PUBCHEM_MONOISOTOPIC_WEIGHT>
340.10056145

> <PUBCHEM_TOTAL_CHARGE>
0

> <PUBCHEM_HEAVY_ATOM_COUNT>
23

> <PUBCHEM_ATOM_DEF_STEREO_COUNT>
0

> <PUBCHEM_ATOM_UDEF_STEREO_COUNT>
9

> <PUBCHEM_BOND_DEF_STEREO_COUNT>
0

> <PUBCHEM_BOND_UDEF_STEREO_COUNT>
0

> <PUBCHEM_ISOTOPIC_ATOM_COUNT>
0

> <PUBCHEM_COMPONENT_COUNT>
1

> <PUBCHEM_CACTVS_TAUTO_COUNT>
-1

> <PUBCHEM_COORDINATE_TYPE>
1
5
255

> <PUBCHEM_BONDANNOTATIONS>
12  1  3
16  1  3
14  20  3
19  23  3
13  4  3
15  5  3
17  6  3
18  7  3
21  9  3

$$$$
