707
  -OEChem-08152603072D

107106  0     0  0  0  0  0  0999 V2000
    2.5369    0.7500    0.0000 O   0  0  0  0  0  0  0  0  0  0  0  0
   16.3933    0.7500    0.0000 C   0  0  0  0  0  0  0  0  0  0  0  0
   19.8574    0.7500    0.0000 C   0  0  0  0  0  0  0  0  0  0  0  0
   17.2594    0.2500    0.0000 C   0  0  0  0  0  0  0  0  0  0  0  0
   12.9292    0.7500    0.0000 C   0  0  0  0  0  0  0  0  0  0  0  0
   13.7953    0.2500    0.0000 C   0  0  0  0  0  0  0  0  0  0  0  0
   20.7235    0.2500    0.0000 C   0  0  0  0  0  0  0  0  0  0  0  0
   15.5273    0.2500    0.0000 C   0  0  0  0  0  0  0  0  0  0  0  0
   18.9914    0.2500    0.0000 C   0  0  0  0  0  0  0  0  0  0  0  0
   12.0632    0.2500    0.0000 C   0  0  0  0  0  0  0  0  0  0  0  0
   23.3215    0.7500    0.0000 C   0  0  0  0  0  0  0  0  0  0  0  0
   10.3312    0.2500    0.0000 C   0  0  0  0  0  0  0  0  0  0  0  0
   22.4555    0.2500    0.0000 C   0  0  0  0  0  0  0  0  0  0  0  0
    9.4651    0.7500    0.0000 C   0  0  0  0  0  0  0  0  0  0  0  0
   18.1254    0.7500    0.0000 C   0  0  0  0  0  0  0  0  0  0  0  0
   14.6613    0.7500    0.0000 C   0  0  0  0  0  0  0  0  0  0  0  0
   24.1876    0.2500    0.0000 C   0  0  0  0  0  0  0  0  0  0  0  0
   21.5895    0.7500    0.0000 C   0  0  0  0  0  0  0  0  0  0  0  0
   11.1972    0.7500    0.0000 C   0  0  0  0  0  0  0  0  0  0  0  0
    8.5991    0.2500    0.0000 C   0  0  0  0  0  0  0  0  0  0  0  0
   25.0536    0.7500    0.0000 C   0  0  0  0  0  0  0  0  0  0  0  0
   25.9196    0.2500    0.0000 C   0  0  0  0  0  0  0  0  0  0  0  0
   15.5273   -0.7500    0.0000 C   0  0  0  0  0  0  0  0  0  0  0  0
   26.7856    0.7500    0.0000 C   0  0  0  0  0  0  0  0  0  0  0  0
   18.9914   -0.7500    0.0000 C   0  0  0  0  0  0  0  0  0  0  0  0
    6.8671    0.2500    0.0000 C   0  0  0  0  0  0  0  0  0  0  0  0
    7.7331    0.7500    0.0000 C   0  0  0  0  0  0  0  0  0  0  0  0
   12.0632   -0.7500    0.0000 C   0  0  0  0  0  0  0  0  0  0  0  0
   22.4555   -0.7500    0.0000 C   0  0  0  0  0  0  0  0  0  0  0  0
    6.0010    0.7500    0.0000 C   0  0  0  0  0  0  0  0  0  0  0  0
   27.6517    0.2500    0.0000 C   0  0  0  0  0  0  0  0  0  0  0  0
    8.5991   -0.7500    0.0000 C   0  0  0  0  0  0  0  0  0  0  0  0
   25.9196   -0.7500    0.0000 C   0  0  0  0  0  0  0  0  0  0  0  0
    5.1350    0.2500    0.0000 C   0  0  0  0  0  0  0  0  0  0  0  0
   28.5177    0.7500    0.0000 C   0  0  0  0  0  0  0  0  0  0  0  0
    5.1350   -0.7500    0.0000 C   0  0  0  0  0  0  0  0  0  0  0  0
   29.3837    0.2500    0.0000 C   0  0  0  0  0  0  0  0  0  0  0  0
    4.2690    0.7500    0.0000 C   0  0  0  0  0  0  0  0  0  0  0  0
    3.4030    0.2500    0.0000 C   0  0  0  0  0  0  0  0  0  0  0  0
   30.2497    0.7500    0.0000 C   0  0  0  0  0  0  0  0  0  0  0  0
   29.3837   -0.7500    0.0000 C   0  0  0  0  0  0  0  0  0  0  0  0
   16.7919    1.2250    0.0000 H   0  0  0  0  0  0  0  0  0  0  0  0
   15.9948    1.2250    0.0000 H   0  0  0  0  0  0  0  0  0  0  0  0
   20.2560    1.2250    0.0000 H   0  0  0  0  0  0  0  0  0  0  0  0
   19.4589    1.2250    0.0000 H   0  0  0  0  0  0  0  0  0  0  0  0
   16.8608   -0.2249    0.0000 H   0  0  0  0  0  0  0  0  0  0  0  0
   17.6579   -0.2249    0.0000 H   0  0  0  0  0  0  0  0  0  0  0  0
   13.3278    1.2250    0.0000 H   0  0  0  0  0  0  0  0  0  0  0  0
   12.5307    1.2250    0.0000 H   0  0  0  0  0  0  0  0  0  0  0  0
   13.3967   -0.2249    0.0000 H   0  0  0  0  0  0  0  0  0  0  0  0
   14.1938   -0.2249    0.0000 H   0  0  0  0  0  0  0  0  0  0  0  0
   20.3249   -0.2249    0.0000 H   0  0  0  0  0  0  0  0  0  0  0  0
   21.1220   -0.2249    0.0000 H   0  0  0  0  0  0  0  0  0  0  0  0
   23.7201    1.2250    0.0000 H   0  0  0  0  0  0  0  0  0  0  0  0
   22.9230    1.2250    0.0000 H   0  0  0  0  0  0  0  0  0  0  0  0
    9.9326   -0.2249    0.0000 H   0  0  0  0  0  0  0  0  0  0  0  0
   10.7297   -0.2249    0.0000 H   0  0  0  0  0  0  0  0  0  0  0  0
    9.8637    1.2250    0.0000 H   0  0  0  0  0  0  0  0  0  0  0  0
    9.0666    1.2250    0.0000 H   0  0  0  0  0  0  0  0  0  0  0  0
   18.1254    1.3700    0.0000 H   0  0  0  0  0  0  0  0  0  0  0  0
   14.6613    1.3700    0.0000 H   0  0  0  0  0  0  0  0  0  0  0  0
   23.7890   -0.2249    0.0000 H   0  0  0  0  0  0  0  0  0  0  0  0
   24.5861   -0.2249    0.0000 H   0  0  0  0  0  0  0  0  0  0  0  0
   21.5895    1.3700    0.0000 H   0  0  0  0  0  0  0  0  0  0  0  0
   11.1972    1.3700    0.0000 H   0  0  0  0  0  0  0  0  0  0  0  0
   25.0536    1.3700    0.0000 H   0  0  0  0  0  0  0  0  0  0  0  0
   14.9073   -0.7500    0.0000 H   0  0  0  0  0  0  0  0  0  0  0  0
   15.5273   -1.3700    0.0000 H   0  0  0  0  0  0  0  0  0  0  0  0
   16.1473   -0.7500    0.0000 H   0  0  0  0  0  0  0  0  0  0  0  0
   27.1842    1.2250    0.0000 H   0  0  0  0  0  0  0  0  0  0  0  0
   26.3871    1.2250    0.0000 H   0  0  0  0  0  0  0  0  0  0  0  0
   18.3714   -0.7500    0.0000 H   0  0  0  0  0  0  0  0  0  0  0  0
   18.9914   -1.3700    0.0000 H   0  0  0  0  0  0  0  0  0  0  0  0
   19.6114   -0.7500    0.0000 H   0  0  0  0  0  0  0  0  0  0  0  0
    6.4685   -0.2249    0.0000 H   0  0  0  0  0  0  0  0  0  0  0  0
    7.2656   -0.2249    0.0000 H   0  0  0  0  0  0  0  0  0  0  0  0
    7.7331    1.3700    0.0000 H   0  0  0  0  0  0  0  0  0  0  0  0
   11.4432   -0.7500    0.0000 H   0  0  0  0  0  0  0  0  0  0  0  0
   12.0632   -1.3700    0.0000 H   0  0  0  0  0  0  0  0  0  0  0  0
   12.6832   -0.7500    0.0000 H   0  0  0  0  0  0  0  0  0  0  0  0
   21.8355   -0.7500    0.0000 H   0  0  0  0  0  0  0  0  0  0  0  0
   22.4555   -1.3700    0.0000 H   0  0  0  0  0  0  0  0  0  0  0  0
   23.0755   -0.7500    0.0000 H   0  0  0  0  0  0  0  0  0  0  0  0
    6.3996    1.2250    0.0000 H   0  0  0  0  0  0  0  0  0  0  0  0
    5.6025    1.2250    0.0000 H   0  0  0  0  0  0  0  0  0  0  0  0
   27.2531   -0.2249    0.0000 H   0  0  0  0  0  0  0  0  0  0  0  0
   28.0502   -0.2249    0.0000 H   0  0  0  0  0  0  0  0  0  0  0  0
    7.9791   -0.7500    0.0000 H   0  0  0  0  0  0  0  0  0  0  0  0
    8.5991   -1.3700    0.0000 H   0  0  0  0  0  0  0  0  0  0  0  0
    9.2191   -0.7500    0.0000 H   0  0  0  0  0  0  0  0  0  0  0  0
   25.2996   -0.7500    0.0000 H   0  0  0  0  0  0  0  0  0  0  0  0
   25.9196   -1.3700    0.0000 H   0  0  0  0  0  0  0  0  0  0  0  0
   26.5396   -0.7500    0.0000 H   0  0  0  0  0  0  0  0  0  0  0  0
   28.5177    1.3700    0.0000 H   0  0  0  0  0  0  0  0  0  0  0  0
    4.5150   -0.7500    0.0000 H   0  0  0  0  0  0  0  0  0  0  0  0
    5.1350   -1.3700    0.0000 H   0  0  0  0  0  0  0  0  0  0  0  0
    5.7550   -0.7500    0.0000 H   0  0  0  0  0  0  0  0  0  0  0  0
    4.2690    1.3700    0.0000 H   0  0  0  0  0  0  0  0  0  0  0  0
    3.0044   -0.2249    0.0000 H   0  0  0  0  0  0  0  0  0  0  0  0
    3.8015   -0.2249    0.0000 H   0  0  0  0  0  0  0  0  0  0  0  0
   30.5597    0.2131    0.0000 H   0  0  0  0  0  0  0  0  0  0  0  0
   30.7867    1.0600    0.0000 H   0  0  0  0  0  0  0  0  0  0  0  0
   29.9397    1.2869    0.0000 H   0  0  0  0  0  0  0  0  0  0  0  0
   28.7637   -0.7500    0.0000 H   0  0  0  0  0  0  0  0  0  0  0  0
   29.3837   -1.3700    0.0000 H   0  0  0  0  0  0  0  0  0  0  0  0
   30.0037   -0.7500    0.0000 H   0  0  0  0  0  0  0  0  0  0  0  0
    2.0000    0.4400    0.0000 H   0  0  0  0  0  0  0  0  0  0  0  0
  1 39  1  0  0  0  0
  1107  1  0  0  0  0
  2  4  1  0  0  0  0
  2  8  1  0  0  0  0
  2 42  1  0  0  0  0
  2 43  1  0  0  0  0
  3  7  1  0  0  0  0
  3  9  1  0  0  0  0
  3 44  1  0  0  0  0
  3 45  1  0  0  0  0
  4 15  1  0  0  0  0
  4 46  1  0  0  0  0
  4 47  1  0  0  0  0
  5  6  1  0  0  0  0
  5 10  1  0  0  0  0
  5 48  1  0  0  0  0
  5 49  1  0  0  0  0
  6 16  1  0  0  0  0
  6 50  1  0  0  0  0
  6 51  1  0  0  0  0
  7 18  1  0  0  0  0
  7 52  1  0  0  0  0
  7 53  1  0  0  0  0
  8 16  2  3  0  0  0
  8 23  1  0  0  0  0
  9 15  2  3  0  0  0
  9 25  1  0  0  0  0
 10 19  2  3  0  0  0
 10 28  1  0  0  0  0
 11 13  1  0  0  0  0
 11 17  1  0  0  0  0
 11 54  1  0  0  0  0
 11 55  1  0  0  0  0
 12 14  1  0  0  0  0
 12 19  1  0  0  0  0
 12 56  1  0  0  0  0
 12 57  1  0  0  0  0
 13 18  2  3  0  0  0
 13 29  1  0  0  0  0
 14 20  1  0  0  0  0
 14 58  1  0  0  0  0
 14 59  1  0  0  0  0
 15 60  1  0  0  0  0
 16 61  1  0  0  0  0
 17 21  1  0  0  0  0
 17 62  1  0  0  0  0
 17 63  1  0  0  0  0
 18 64  1  0  0  0  0
 19 65  1  0  0  0  0
 20 27  2  3  0  0  0
 20 32  1  0  0  0  0
 21 22  2  3  0  0  0
 21 66  1  0  0  0  0
 22 24  1  0  0  0  0
 22 33  1  0  0  0  0
 23 67  1  0  0  0  0
 23 68  1  0  0  0  0
 23 69  1  0  0  0  0
 24 31  1  0  0  0  0
 24 70  1  0  0  0  0
 24 71  1  0  0  0  0
 25 72  1  0  0  0  0
 25 73  1  0  0  0  0
 25 74  1  0  0  0  0
 26 27  1  0  0  0  0
 26 30  1  0  0  0  0
 26 75  1  0  0  0  0
 26 76  1  0  0  0  0
 27 77  1  0  0  0  0
 28 78  1  0  0  0  0
 28 79  1  0  0  0  0
 28 80  1  0  0  0  0
 29 81  1  0  0  0  0
 29 82  1  0  0  0  0
 29 83  1  0  0  0  0
 30 34  1  0  0  0  0
 30 84  1  0  0  0  0
 30 85  1  0  0  0  0
 31 35  1  0  0  0  0
 31 86  1  0  0  0  0
 31 87  1  0  0  0  0
 32 88  1  0  0  0  0
 32 89  1  0  0  0  0
 32 90  1  0  0  0  0
 33 91  1  0  0  0  0
 33 92  1  0  0  0  0
 33 93  1  0  0  0  0
 34 36  1  0  0  0  0
 34 38  2  3  0  0  0
 35 37  2  0  0  0  0
 35 94  1  0  0  0  0
 36 95  1  0  0  0  0
 36 96  1  0  0  0  0
 36 97  1  0  0  0  0
 37 40  1  0  0  0  0
 37 41  1  0  0  0  0
 38 39  1  0  0  0  0
 38 98  1  0  0  0  0
 39 99  1  0  0  0  0
 39100  1  0  0  0  0
 40101  1  0  0  0  0
 40102  1  0  0  0  0
 40103  1  0  0  0  0
 41104  1  0  0  0  0
 41105  1  0  0  0  0
 41106  1  0  0  0  0
M  END
> <PUBCHEM_COMPOUND_CID>
707

> <PUBCHEM_COMPOUND_CANONICALIZED>
1

> <PUBCHEM_CACTVS_COMPLEXITY>
951

> <PUBCHEM_CACTVS_HBOND_ACCEPTOR>
1

> <PUBCHEM_CACTVS_HBOND_DONOR>
1

> <PUBCHEM_CACTVS_ROTATABLE_BOND>
22

> <PUBCHEM_CACTVS_SUBSKEYS>
AAADcfB8IAAAAAAAAAAAAAAAAAAAAAAAAAAAAAAAAAAAAAAAAAAAGgAACAAADACggAICAAAAAgCAAiBCAAAAAAAgAAAACAAAAAgAFAIAAQAAEAAAgAAIEAIAAAAAAAAAAAAAAAAAAAAAAAAAAAAAAAAAAA==

> <PUBCHEM_IUPAC_OPENEYE_NAME>
3,7,11,15,19,23,27,31-octamethyldotriaconta-2,6,10,14,18,22,26,30-octaen-1-ol

> <PUBCHEM_IUPAC_CAS_NAME>
3,7,11,15,19,23,27,31-octamethyl-1-dotriaconta-2,6,10,14,18,22,26,30-octaenol

> <PUBCHEM_IUPAC_NAME_MARKUP>
3,7,11,15,19,23,27,31-octamethyldotriaconta-2,6,10,14,18,22,26,30-octaen-1-ol

> <PUBCHEM_IUPAC_NAME>
3,7,11,15,19,23,27,31-octamethyldotriaconta-2,6,10,14,18,22,26,30-octaen-1-ol

> <PUBCHEM_IUPAC_SYSTEMATIC_NAME>
3,7,11,15,19,23,27,31-octamethyldotriaconta-2,6,10,14,18,22,26,30-octaen-1-ol

> <PUBCHEM_IUPAC_TRADITIONAL_NAME>
3,7,11,15,19,23,27,31-octamethyldotriaconta-2,6,10,14,18,22,26,30-octaen-1-ol

> <PUBCHEM_IUPAC_INCHI>
InChI=1S/C40H66O/c1-33(2)17-10-18-34(3)19-11-20-35(4)21-12-22-36(5)23-13-24-37(6)25-14-26-38(7)27-15-28-39(8)29-16-30-40(9)31-32-41/h17,19,21,23,25,27,29,31,41H,10-16,18,20,22,24,26,28,30,32H2,1-9H3

> <PUBCHEM_IUPAC_INCHIKEY>
BZORESSIXXHLNB-UHFFFAOYSA-N

> <PUBCHEM_XLOGP3_AA>
14

> <PUBCHEM_EXACT_MASS>
562.511366725

> <PUBCHEM_MOLECULAR_FORMULA>
C40H66O

> <PUBCHEM_MOLECULAR_WEIGHT>
562.9

> <PUBCHEM_SMILES>
CC(=CCCC(=CCCC(=CCCC(=CCCC(=CCCC(=CCCC(=CCCC(=CCO)C)C)C)C)C)C)C)C

> <PUBCHEM_CONNECTIVITY_SMILES>
CC(=CCCC(=CCCC(=CCCC(=CCCC(=CCCC(=CCCC(=CCCC(=CCO)C)C)C)C)C)C)C)C

> <PUBCHEM_CACTVS_TPSA>
20.2

> <PUBCHEM_MONOISOTOPIC_WEIGHT>
562.511366725

> <PUBCHEM_TOTAL_CHARGE>
0

> <PUBCHEM_HEAVY_ATOM_COUNT>
41

> <PUBCHEM_ATOM_DEF_STEREO_COUNT>
0

> <PUBCHEM_ATOM_UDEF_STEREO_COUNT>
0

> <PUBCHEM_BOND_DEF_STEREO_COUNT>
0

> <PUBCHEM_BOND_UDEF_STEREO_COUNT>
7

> <PUBCHEM_ISOTOPIC_ATOM_COUNT>
0

> <PUBCHEM_COMPONENT_COUNT>
1

> <PUBCHEM_CACTVS_TAUTO_COUNT>
-1

> <PUBCHEM_COORDINATE_TYPE>
1
5
255

> <PUBCHEM_BONDANNOTATIONS>
10  19  1
13  18  1
20  27  1
21  22  1
34  38  1
8  16  1
9  15  1

$$$$
