375
  -OEChem-08152602422D

146145  0     0  0  0  0  0  0999 V2000
    2.5369    0.7500    0.0000 O   0  0  0  0  0  0  0  0  0  0  0  0
   23.3215    0.7500    0.0000 C   0  0  0  0  0  0  0  0  0  0  0  0
   19.8574    0.7500    0.0000 C   0  0  0  0  0  0  0  0  0  0  0  0
   26.7856    0.7500    0.0000 C   0  0  0  0  0  0  0  0  0  0  0  0
   16.3933    0.7500    0.0000 C   0  0  0  0  0  0  0  0  0  0  0  0
   20.7235    0.2500    0.0000 C   0  0  0  0  0  0  0  0  0  0  0  0
   24.1876    0.2500    0.0000 C   0  0  0  0  0  0  0  0  0  0  0  0
   17.2594    0.2500    0.0000 C   0  0  0  0  0  0  0  0  0  0  0  0
   27.6517    0.2500    0.0000 C   0  0  0  0  0  0  0  0  0  0  0  0
   30.2497    0.7500    0.0000 C   0  0  0  0  0  0  0  0  0  0  0  0
   22.4555    0.2500    0.0000 C   0  0  0  0  0  0  0  0  0  0  0  0
   18.9914    0.2500    0.0000 C   0  0  0  0  0  0  0  0  0  0  0  0
   25.9196    0.2500    0.0000 C   0  0  0  0  0  0  0  0  0  0  0  0
   12.9292    0.7500    0.0000 C   0  0  0  0  0  0  0  0  0  0  0  0
   13.7953    0.2500    0.0000 C   0  0  0  0  0  0  0  0  0  0  0  0
   15.5273    0.2500    0.0000 C   0  0  0  0  0  0  0  0  0  0  0  0
   31.1158    0.2500    0.0000 C   0  0  0  0  0  0  0  0  0  0  0  0
   29.3837    0.2500    0.0000 C   0  0  0  0  0  0  0  0  0  0  0  0
   21.5895    0.7500    0.0000 C   0  0  0  0  0  0  0  0  0  0  0  0
   25.0536    0.7500    0.0000 C   0  0  0  0  0  0  0  0  0  0  0  0
   18.1254    0.7500    0.0000 C   0  0  0  0  0  0  0  0  0  0  0  0
   12.0632    0.2500    0.0000 C   0  0  0  0  0  0  0  0  0  0  0  0
   28.5177    0.7500    0.0000 C   0  0  0  0  0  0  0  0  0  0  0  0
   14.6613    0.7500    0.0000 C   0  0  0  0  0  0  0  0  0  0  0  0
   33.7139    0.7500    0.0000 C   0  0  0  0  0  0  0  0  0  0  0  0
   10.3312    0.2500    0.0000 C   0  0  0  0  0  0  0  0  0  0  0  0
   32.8478    0.2500    0.0000 C   0  0  0  0  0  0  0  0  0  0  0  0
    9.4651    0.7500    0.0000 C   0  0  0  0  0  0  0  0  0  0  0  0
   31.9818    0.7500    0.0000 C   0  0  0  0  0  0  0  0  0  0  0  0
   34.5799    0.2500    0.0000 C   0  0  0  0  0  0  0  0  0  0  0  0
   11.1972    0.7500    0.0000 C   0  0  0  0  0  0  0  0  0  0  0  0
    8.5991    0.2500    0.0000 C   0  0  0  0  0  0  0  0  0  0  0  0
   22.4555   -0.7500    0.0000 C   0  0  0  0  0  0  0  0  0  0  0  0
   18.9914   -0.7500    0.0000 C   0  0  0  0  0  0  0  0  0  0  0  0
   25.9196   -0.7500    0.0000 C   0  0  0  0  0  0  0  0  0  0  0  0
   15.5273   -0.7500    0.0000 C   0  0  0  0  0  0  0  0  0  0  0  0
   29.3837   -0.7500    0.0000 C   0  0  0  0  0  0  0  0  0  0  0  0
   35.4459    0.7500    0.0000 C   0  0  0  0  0  0  0  0  0  0  0  0
   36.3119    0.2500    0.0000 C   0  0  0  0  0  0  0  0  0  0  0  0
   12.0632   -0.7500    0.0000 C   0  0  0  0  0  0  0  0  0  0  0  0
   37.1780    0.7500    0.0000 C   0  0  0  0  0  0  0  0  0  0  0  0
    6.8671    0.2500    0.0000 C   0  0  0  0  0  0  0  0  0  0  0  0
    7.7331    0.7500    0.0000 C   0  0  0  0  0  0  0  0  0  0  0  0
   32.8478   -0.7500    0.0000 C   0  0  0  0  0  0  0  0  0  0  0  0
    6.0010    0.7500    0.0000 C   0  0  0  0  0  0  0  0  0  0  0  0
   38.0440    0.2500    0.0000 C   0  0  0  0  0  0  0  0  0  0  0  0
    8.5991   -0.7500    0.0000 C   0  0  0  0  0  0  0  0  0  0  0  0
   36.3119   -0.7500    0.0000 C   0  0  0  0  0  0  0  0  0  0  0  0
    5.1350    0.2500    0.0000 C   0  0  0  0  0  0  0  0  0  0  0  0
   38.9100    0.7500    0.0000 C   0  0  0  0  0  0  0  0  0  0  0  0
    5.1350   -0.7500    0.0000 C   0  0  0  0  0  0  0  0  0  0  0  0
   39.7760    0.2500    0.0000 C   0  0  0  0  0  0  0  0  0  0  0  0
    4.2690    0.7500    0.0000 C   0  0  0  0  0  0  0  0  0  0  0  0
    3.4030    0.2500    0.0000 C   0  0  0  0  0  0  0  0  0  0  0  0
   40.6421    0.7500    0.0000 C   0  0  0  0  0  0  0  0  0  0  0  0
   39.7760   -0.7500    0.0000 C   0  0  0  0  0  0  0  0  0  0  0  0
   23.7201    1.2250    0.0000 H   0  0  0  0  0  0  0  0  0  0  0  0
   22.9230    1.2250    0.0000 H   0  0  0  0  0  0  0  0  0  0  0  0
   20.2560    1.2250    0.0000 H   0  0  0  0  0  0  0  0  0  0  0  0
   19.4589    1.2250    0.0000 H   0  0  0  0  0  0  0  0  0  0  0  0
   27.1842    1.2250    0.0000 H   0  0  0  0  0  0  0  0  0  0  0  0
   26.3871    1.2250    0.0000 H   0  0  0  0  0  0  0  0  0  0  0  0
   16.7919    1.2250    0.0000 H   0  0  0  0  0  0  0  0  0  0  0  0
   15.9948    1.2250    0.0000 H   0  0  0  0  0  0  0  0  0  0  0  0
   20.3249   -0.2249    0.0000 H   0  0  0  0  0  0  0  0  0  0  0  0
   21.1220   -0.2249    0.0000 H   0  0  0  0  0  0  0  0  0  0  0  0
   23.7890   -0.2249    0.0000 H   0  0  0  0  0  0  0  0  0  0  0  0
   24.5861   -0.2249    0.0000 H   0  0  0  0  0  0  0  0  0  0  0  0
   16.8608   -0.2249    0.0000 H   0  0  0  0  0  0  0  0  0  0  0  0
   17.6579   -0.2249    0.0000 H   0  0  0  0  0  0  0  0  0  0  0  0
   27.2531   -0.2249    0.0000 H   0  0  0  0  0  0  0  0  0  0  0  0
   28.0502   -0.2249    0.0000 H   0  0  0  0  0  0  0  0  0  0  0  0
   30.6483    1.2250    0.0000 H   0  0  0  0  0  0  0  0  0  0  0  0
   29.8512    1.2250    0.0000 H   0  0  0  0  0  0  0  0  0  0  0  0
   13.3278    1.2250    0.0000 H   0  0  0  0  0  0  0  0  0  0  0  0
   12.5307    1.2250    0.0000 H   0  0  0  0  0  0  0  0  0  0  0  0
   13.3967   -0.2249    0.0000 H   0  0  0  0  0  0  0  0  0  0  0  0
   14.1938   -0.2249    0.0000 H   0  0  0  0  0  0  0  0  0  0  0  0
   30.7172   -0.2249    0.0000 H   0  0  0  0  0  0  0  0  0  0  0  0
   31.5143   -0.2249    0.0000 H   0  0  0  0  0  0  0  0  0  0  0  0
   21.5895    1.3700    0.0000 H   0  0  0  0  0  0  0  0  0  0  0  0
   25.0536    1.3700    0.0000 H   0  0  0  0  0  0  0  0  0  0  0  0
   18.1254    1.3700    0.0000 H   0  0  0  0  0  0  0  0  0  0  0  0
   28.5177    1.3700    0.0000 H   0  0  0  0  0  0  0  0  0  0  0  0
   14.6613    1.3700    0.0000 H   0  0  0  0  0  0  0  0  0  0  0  0
   34.1124    1.2250    0.0000 H   0  0  0  0  0  0  0  0  0  0  0  0
   33.3153    1.2250    0.0000 H   0  0  0  0  0  0  0  0  0  0  0  0
    9.9326   -0.2249    0.0000 H   0  0  0  0  0  0  0  0  0  0  0  0
   10.7297   -0.2249    0.0000 H   0  0  0  0  0  0  0  0  0  0  0  0
    9.8637    1.2250    0.0000 H   0  0  0  0  0  0  0  0  0  0  0  0
    9.0666    1.2250    0.0000 H   0  0  0  0  0  0  0  0  0  0  0  0
   31.9818    1.3700    0.0000 H   0  0  0  0  0  0  0  0  0  0  0  0
   34.1813   -0.2249    0.0000 H   0  0  0  0  0  0  0  0  0  0  0  0
   34.9784   -0.2249    0.0000 H   0  0  0  0  0  0  0  0  0  0  0  0
   11.1972    1.3700    0.0000 H   0  0  0  0  0  0  0  0  0  0  0  0
   21.8355   -0.7500    0.0000 H   0  0  0  0  0  0  0  0  0  0  0  0
   22.4555   -1.3700    0.0000 H   0  0  0  0  0  0  0  0  0  0  0  0
   23.0755   -0.7500    0.0000 H   0  0  0  0  0  0  0  0  0  0  0  0
   18.3714   -0.7500    0.0000 H   0  0  0  0  0  0  0  0  0  0  0  0
   18.9914   -1.3700    0.0000 H   0  0  0  0  0  0  0  0  0  0  0  0
   19.6114   -0.7500    0.0000 H   0  0  0  0  0  0  0  0  0  0  0  0
   25.2996   -0.7500    0.0000 H   0  0  0  0  0  0  0  0  0  0  0  0
   25.9196   -1.3700    0.0000 H   0  0  0  0  0  0  0  0  0  0  0  0
   26.5396   -0.7500    0.0000 H   0  0  0  0  0  0  0  0  0  0  0  0
   14.9073   -0.7500    0.0000 H   0  0  0  0  0  0  0  0  0  0  0  0
   15.5273   -1.3700    0.0000 H   0  0  0  0  0  0  0  0  0  0  0  0
   16.1473   -0.7500    0.0000 H   0  0  0  0  0  0  0  0  0  0  0  0
   28.7637   -0.7500    0.0000 H   0  0  0  0  0  0  0  0  0  0  0  0
   29.3837   -1.3700    0.0000 H   0  0  0  0  0  0  0  0  0  0  0  0
   30.0037   -0.7500    0.0000 H   0  0  0  0  0  0  0  0  0  0  0  0
   35.4459    1.3700    0.0000 H   0  0  0  0  0  0  0  0  0  0  0  0
   11.4432   -0.7500    0.0000 H   0  0  0  0  0  0  0  0  0  0  0  0
   12.0632   -1.3700    0.0000 H   0  0  0  0  0  0  0  0  0  0  0  0
   12.6832   -0.7500    0.0000 H   0  0  0  0  0  0  0  0  0  0  0  0
   37.5765    1.2250    0.0000 H   0  0  0  0  0  0  0  0  0  0  0  0
   36.7794    1.2250    0.0000 H   0  0  0  0  0  0  0  0  0  0  0  0
    6.4685   -0.2249    0.0000 H   0  0  0  0  0  0  0  0  0  0  0  0
    7.2656   -0.2249    0.0000 H   0  0  0  0  0  0  0  0  0  0  0  0
    7.7331    1.3700    0.0000 H   0  0  0  0  0  0  0  0  0  0  0  0
   32.2278   -0.7500    0.0000 H   0  0  0  0  0  0  0  0  0  0  0  0
   32.8478   -1.3700    0.0000 H   0  0  0  0  0  0  0  0  0  0  0  0
   33.4678   -0.7500    0.0000 H   0  0  0  0  0  0  0  0  0  0  0  0
    6.3996    1.2250    0.0000 H   0  0  0  0  0  0  0  0  0  0  0  0
    5.6025    1.2250    0.0000 H   0  0  0  0  0  0  0  0  0  0  0  0
   37.6454   -0.2249    0.0000 H   0  0  0  0  0  0  0  0  0  0  0  0
   38.4425   -0.2249    0.0000 H   0  0  0  0  0  0  0  0  0  0  0  0
    7.9791   -0.7500    0.0000 H   0  0  0  0  0  0  0  0  0  0  0  0
    8.5991   -1.3700    0.0000 H   0  0  0  0  0  0  0  0  0  0  0  0
    9.2191   -0.7500    0.0000 H   0  0  0  0  0  0  0  0  0  0  0  0
   35.6919   -0.7500    0.0000 H   0  0  0  0  0  0  0  0  0  0  0  0
   36.3119   -1.3700    0.0000 H   0  0  0  0  0  0  0  0  0  0  0  0
   36.9319   -0.7500    0.0000 H   0  0  0  0  0  0  0  0  0  0  0  0
   38.9100    1.3700    0.0000 H   0  0  0  0  0  0  0  0  0  0  0  0
    4.5150   -0.7500    0.0000 H   0  0  0  0  0  0  0  0  0  0  0  0
    5.1350   -1.3700    0.0000 H   0  0  0  0  0  0  0  0  0  0  0  0
    5.7550   -0.7500    0.0000 H   0  0  0  0  0  0  0  0  0  0  0  0
    4.2690    1.3700    0.0000 H   0  0  0  0  0  0  0  0  0  0  0  0
    3.0044   -0.2249    0.0000 H   0  0  0  0  0  0  0  0  0  0  0  0
    3.8015   -0.2249    0.0000 H   0  0  0  0  0  0  0  0  0  0  0  0
   40.9521    0.2131    0.0000 H   0  0  0  0  0  0  0  0  0  0  0  0
   41.1790    1.0600    0.0000 H   0  0  0  0  0  0  0  0  0  0  0  0
   40.3321    1.2869    0.0000 H   0  0  0  0  0  0  0  0  0  0  0  0
   39.1560   -0.7500    0.0000 H   0  0  0  0  0  0  0  0  0  0  0  0
   39.7760   -1.3700    0.0000 H   0  0  0  0  0  0  0  0  0  0  0  0
   40.3960   -0.7500    0.0000 H   0  0  0  0  0  0  0  0  0  0  0  0
    2.0000    0.4400    0.0000 H   0  0  0  0  0  0  0  0  0  0  0  0
  1 54  1  0  0  0  0
  1146  1  0  0  0  0
  2  7  1  0  0  0  0
  2 11  1  0  0  0  0
  2 57  1  0  0  0  0
  2 58  1  0  0  0  0
  3  6  1  0  0  0  0
  3 12  1  0  0  0  0
  3 59  1  0  0  0  0
  3 60  1  0  0  0  0
  4  9  1  0  0  0  0
  4 13  1  0  0  0  0
  4 61  1  0  0  0  0
  4 62  1  0  0  0  0
  5  8  1  0  0  0  0
  5 16  1  0  0  0  0
  5 63  1  0  0  0  0
  5 64  1  0  0  0  0
  6 19  1  0  0  0  0
  6 65  1  0  0  0  0
  6 66  1  0  0  0  0
  7 20  1  0  0  0  0
  7 67  1  0  0  0  0
  7 68  1  0  0  0  0
  8 21  1  0  0  0  0
  8 69  1  0  0  0  0
  8 70  1  0  0  0  0
  9 23  1  0  0  0  0
  9 71  1  0  0  0  0
  9 72  1  0  0  0  0
 10 17  1  0  0  0  0
 10 18  1  0  0  0  0
 10 73  1  0  0  0  0
 10 74  1  0  0  0  0
 11 19  2  3  0  0  0
 11 33  1  0  0  0  0
 12 21  2  3  0  0  0
 12 34  1  0  0  0  0
 13 20  2  3  0  0  0
 13 35  1  0  0  0  0
 14 15  1  0  0  0  0
 14 22  1  0  0  0  0
 14 75  1  0  0  0  0
 14 76  1  0  0  0  0
 15 24  1  0  0  0  0
 15 77  1  0  0  0  0
 15 78  1  0  0  0  0
 16 24  2  3  0  0  0
 16 36  1  0  0  0  0
 17 29  1  0  0  0  0
 17 79  1  0  0  0  0
 17 80  1  0  0  0  0
 18 23  2  3  0  0  0
 18 37  1  0  0  0  0
 19 81  1  0  0  0  0
 20 82  1  0  0  0  0
 21 83  1  0  0  0  0
 22 31  2  3  0  0  0
 22 40  1  0  0  0  0
 23 84  1  0  0  0  0
 24 85  1  0  0  0  0
 25 27  1  0  0  0  0
 25 30  1  0  0  0  0
 25 86  1  0  0  0  0
 25 87  1  0  0  0  0
 26 28  1  0  0  0  0
 26 31  1  0  0  0  0
 26 88  1  0  0  0  0
 26 89  1  0  0  0  0
 27 29  2  3  0  0  0
 27 44  1  0  0  0  0
 28 32  1  0  0  0  0
 28 90  1  0  0  0  0
 28 91  1  0  0  0  0
 29 92  1  0  0  0  0
 30 38  1  0  0  0  0
 30 93  1  0  0  0  0
 30 94  1  0  0  0  0
 31 95  1  0  0  0  0
 32 43  2  3  0  0  0
 32 47  1  0  0  0  0
 33 96  1  0  0  0  0
 33 97  1  0  0  0  0
 33 98  1  0  0  0  0
 34 99  1  0  0  0  0
 34100  1  0  0  0  0
 34101  1  0  0  0  0
 35102  1  0  0  0  0
 35103  1  0  0  0  0
 35104  1  0  0  0  0
 36105  1  0  0  0  0
 36106  1  0  0  0  0
 36107  1  0  0  0  0
 37108  1  0  0  0  0
 37109  1  0  0  0  0
 37110  1  0  0  0  0
 38 39  2  3  0  0  0
 38111  1  0  0  0  0
 39 41  1  0  0  0  0
 39 48  1  0  0  0  0
 40112  1  0  0  0  0
 40113  1  0  0  0  0
 40114  1  0  0  0  0
 41 46  1  0  0  0  0
 41115  1  0  0  0  0
 41116  1  0  0  0  0
 42 43  1  0  0  0  0
 42 45  1  0  0  0  0
 42117  1  0  0  0  0
 42118  1  0  0  0  0
 43119  1  0  0  0  0
 44120  1  0  0  0  0
 44121  1  0  0  0  0
 44122  1  0  0  0  0
 45 49  1  0  0  0  0
 45123  1  0  0  0  0
 45124  1  0  0  0  0
 46 50  1  0  0  0  0
 46125  1  0  0  0  0
 46126  1  0  0  0  0
 47127  1  0  0  0  0
 47128  1  0  0  0  0
 47129  1  0  0  0  0
 48130  1  0  0  0  0
 48131  1  0  0  0  0
 48132  1  0  0  0  0
 49 51  1  0  0  0  0
 49 53  2  3  0  0  0
 50 52  2  0  0  0  0
 50133  1  0  0  0  0
 51134  1  0  0  0  0
 51135  1  0  0  0  0
 51136  1  0  0  0  0
 52 55  1  0  0  0  0
 52 56  1  0  0  0  0
 53 54  1  0  0  0  0
 53137  1  0  0  0  0
 54138  1  0  0  0  0
 54139  1  0  0  0  0
 55140  1  0  0  0  0
 55141  1  0  0  0  0
 55142  1  0  0  0  0
 56143  1  0  0  0  0
 56144  1  0  0  0  0
 56145  1  0  0  0  0
M  END
> <PUBCHEM_COMPOUND_CID>
375

> <PUBCHEM_COMPOUND_CANONICALIZED>
1

> <PUBCHEM_CACTVS_COMPLEXITY>
1410

> <PUBCHEM_CACTVS_HBOND_ACCEPTOR>
1

> <PUBCHEM_CACTVS_HBOND_DONOR>
1

> <PUBCHEM_CACTVS_ROTATABLE_BOND>
31

> <PUBCHEM_CACTVS_SUBSKEYS>
AAADcfB8IAAAAAAAAAAAAAAAAAAAAAAAAAAAAAAAAAAAAAAAAAAAGgAACAAADACggAICAAAAAgCAAiBCAAAAAAAgAAAACAAAAAgAFAIAAQAAEAAAgAAIEAIAAAAAAAAAAAAAAAAAAAAAAAAAAAAAAAAAAA==

> <PUBCHEM_IUPAC_OPENEYE_NAME>
3,7,11,15,19,23,27,31,35,39,43-undecamethyltetratetraconta-2,6,10,14,18,22,26,30,34,38,42-undecaen-1-ol

> <PUBCHEM_IUPAC_CAS_NAME>
3,7,11,15,19,23,27,31,35,39,43-undecamethyl-1-tetratetraconta-2,6,10,14,18,22,26,30,34,38,42-undecaenol

> <PUBCHEM_IUPAC_NAME_MARKUP>
3,7,11,15,19,23,27,31,35,39,43-undecamethyltetratetraconta-2,6,10,14,18,22,26,30,34,38,42-undecaen-1-ol

> <PUBCHEM_IUPAC_NAME>
3,7,11,15,19,23,27,31,35,39,43-undecamethyltetratetraconta-2,6,10,14,18,22,26,30,34,38,42-undecaen-1-ol

> <PUBCHEM_IUPAC_SYSTEMATIC_NAME>
3,7,11,15,19,23,27,31,35,39,43-undecamethyltetratetraconta-2,6,10,14,18,22,26,30,34,38,42-undecaen-1-ol

> <PUBCHEM_IUPAC_TRADITIONAL_NAME>
3,7,11,15,19,23,27,31,35,39,43-undecamethyltetratetraconta-2,6,10,14,18,22,26,30,34,38,42-undecaen-1-ol

> <PUBCHEM_IUPAC_INCHI>
InChI=1S/C55H90O/c1-45(2)23-13-24-46(3)25-14-26-47(4)27-15-28-48(5)29-16-30-49(6)31-17-32-50(7)33-18-34-51(8)35-19-36-52(9)37-20-38-53(10)39-21-40-54(11)41-22-42-55(12)43-44-56/h23,25,27,29,31,33,35,37,39,41,43,56H,13-22,24,26,28,30,32,34,36,38,40,42,44H2,1-12H3

> <PUBCHEM_IUPAC_INCHIKEY>
TXKJNHBRVLCYFX-UHFFFAOYSA-N

> <PUBCHEM_XLOGP3_AA>
19.6

> <PUBCHEM_EXACT_MASS>
766.69916749

> <PUBCHEM_MOLECULAR_FORMULA>
C55H90O

> <PUBCHEM_MOLECULAR_WEIGHT>
767.3

> <PUBCHEM_SMILES>
CC(=CCCC(=CCCC(=CCCC(=CCCC(=CCCC(=CCCC(=CCCC(=CCCC(=CCCC(=CCCC(=CCO)C)C)C)C)C)C)C)C)C)C)C

> <PUBCHEM_CONNECTIVITY_SMILES>
CC(=CCCC(=CCCC(=CCCC(=CCCC(=CCCC(=CCCC(=CCCC(=CCCC(=CCCC(=CCCC(=CCO)C)C)C)C)C)C)C)C)C)C)C

> <PUBCHEM_CACTVS_TPSA>
20.2

> <PUBCHEM_MONOISOTOPIC_WEIGHT>
766.69916749

> <PUBCHEM_TOTAL_CHARGE>
0

> <PUBCHEM_HEAVY_ATOM_COUNT>
56

> <PUBCHEM_ATOM_DEF_STEREO_COUNT>
0

> <PUBCHEM_ATOM_UDEF_STEREO_COUNT>
0

> <PUBCHEM_BOND_DEF_STEREO_COUNT>
0

> <PUBCHEM_BOND_UDEF_STEREO_COUNT>
10

> <PUBCHEM_ISOTOPIC_ATOM_COUNT>
0

> <PUBCHEM_COMPONENT_COUNT>
1

> <PUBCHEM_CACTVS_TAUTO_COUNT>
-1

> <PUBCHEM_COORDINATE_TYPE>
1
5
255

> <PUBCHEM_BONDANNOTATIONS>
11  19  1
12  21  1
13  20  1
16  24  1
18  23  1
22  31  1
27  29  1
32  43  1
38  39  1
49  53  1

$$$$
