360
  -OEChem-08152602412D

 63 63  0     1  0  0  0  0  0999 V2000
    6.0010   -2.0950    0.0000 P   0  0  3  0  0  0  0  0  0  0  0  0
    4.2690   -3.0950    0.0000 O   0  0  0  0  0  0  0  0  0  0  0  0
    6.0010   -3.0950    0.0000 O   0  0  0  0  0  0  0  0  0  0  0  0
    4.2690   -6.0950    0.0000 O   0  0  0  0  0  0  0  0  0  0  0  0
    2.5369   -5.0950    0.0000 O   0  0  0  0  0  0  0  0  0  0  0  0
    6.0010   -5.0950    0.0000 O   0  0  0  0  0  0  0  0  0  0  0  0
    6.0010   -1.0950    0.0000 O   0  0  0  0  0  0  0  0  0  0  0  0
    2.5369   -2.0950    0.0000 O   0  0  0  0  0  0  0  0  0  0  0  0
    7.0010   -2.0950    0.0000 O   0  0  0  0  0  0  0  0  0  0  0  0
    5.0010   -2.0950    0.0000 O   0  0  0  0  0  0  0  0  0  0  0  0
    4.2690   -5.0950    0.0000 C   0  0  3  0  0  0  0  0  0  0  0  0
    3.4030   -4.5950    0.0000 C   0  0  3  0  0  0  0  0  0  0  0  0
    5.1350   -4.5950    0.0000 C   0  0  3  0  0  0  0  0  0  0  0  0
    3.4030   -3.5950    0.0000 C   0  0  3  0  0  0  0  0  0  0  0  0
    5.1350   -3.5950    0.0000 C   0  0  3  0  0  0  0  0  0  0  0  0
    2.5369   -3.0950    0.0000 C   0  0  0  0  0  0  0  0  0  0  0  0
    7.7331    0.9050    0.0000 C   0  0  3  0  0  0  0  0  0  0  0  0
    7.7331    1.9050    0.0000 C   0  0  0  0  0  0  0  0  0  0  0  0
    6.8671    0.4050    0.0000 C   0  0  0  0  0  0  0  0  0  0  0  0
    8.5991    2.4050    0.0000 C   0  0  0  0  0  0  0  0  0  0  0  0
    6.8671   -0.5950    0.0000 C   0  0  0  0  0  0  0  0  0  0  0  0
    8.5991    0.4050    0.0000 C   0  0  0  0  0  0  0  0  0  0  0  0
    8.5991    3.4050    0.0000 C   0  0  0  0  0  0  0  0  0  0  0  0
    9.4651    3.9050    0.0000 C   0  0  0  0  0  0  0  0  0  0  0  0
    9.4651    4.9050    0.0000 C   0  0  0  0  0  0  0  0  0  0  0  0
   10.3312    5.4050    0.0000 C   0  0  0  0  0  0  0  0  0  0  0  0
    8.5991    5.4050    0.0000 C   0  0  0  0  0  0  0  0  0  0  0  0
   10.3312    6.4050    0.0000 C   0  0  0  0  0  0  0  0  0  0  0  0
    3.7320   -5.4050    0.0000 H   0  0  0  0  0  0  0  0  0  0  0  0
    3.4030   -5.2150    0.0000 H   0  0  0  0  0  0  0  0  0  0  0  0
    5.1350   -5.2150    0.0000 H   0  0  0  0  0  0  0  0  0  0  0  0
    3.4030   -2.9750    0.0000 H   0  0  0  0  0  0  0  0  0  0  0  0
    5.1350   -2.9750    0.0000 H   0  0  0  0  0  0  0  0  0  0  0  0
    1.9264   -2.9873    0.0000 H   0  0  0  0  0  0  0  0  0  0  0  0
    2.3249   -3.6776    0.0000 H   0  0  0  0  0  0  0  0  0  0  0  0
    8.2700    1.2150    0.0000 H   0  0  0  0  0  0  0  0  0  0  0  0
    7.5210    2.4876    0.0000 H   0  0  0  0  0  0  0  0  0  0  0  0
    7.1225    1.7973    0.0000 H   0  0  0  0  0  0  0  0  0  0  0  0
    6.6550    0.9876    0.0000 H   0  0  0  0  0  0  0  0  0  0  0  0
    6.2565    0.2973    0.0000 H   0  0  0  0  0  0  0  0  0  0  0  0
    3.7320   -6.4050    0.0000 H   0  0  0  0  0  0  0  0  0  0  0  0
    2.0000   -4.7850    0.0000 H   0  0  0  0  0  0  0  0  0  0  0  0
    6.0010   -5.7150    0.0000 H   0  0  0  0  0  0  0  0  0  0  0  0
    8.8112    1.8224    0.0000 H   0  0  0  0  0  0  0  0  0  0  0  0
    9.2097    2.5127    0.0000 H   0  0  0  0  0  0  0  0  0  0  0  0
    7.0791   -1.1776    0.0000 H   0  0  0  0  0  0  0  0  0  0  0  0
    7.4776   -0.4873    0.0000 H   0  0  0  0  0  0  0  0  0  0  0  0
    8.2891   -0.1319    0.0000 H   0  0  0  0  0  0  0  0  0  0  0  0
    9.1360    0.0950    0.0000 H   0  0  0  0  0  0  0  0  0  0  0  0
    8.9091    0.9419    0.0000 H   0  0  0  0  0  0  0  0  0  0  0  0
    8.3871    3.9876    0.0000 H   0  0  0  0  0  0  0  0  0  0  0  0
    7.9885    3.2973    0.0000 H   0  0  0  0  0  0  0  0  0  0  0  0
    2.0000   -1.7850    0.0000 H   0  0  0  0  0  0  0  0  0  0  0  0
   10.0021    3.5950    0.0000 H   0  0  0  0  0  0  0  0  0  0  0  0
    7.3110   -2.6319    0.0000 H   0  0  0  0  0  0  0  0  0  0  0  0
   10.5432    4.8224    0.0000 H   0  0  0  0  0  0  0  0  0  0  0  0
   10.9417    5.5127    0.0000 H   0  0  0  0  0  0  0  0  0  0  0  0
    8.9091    5.9419    0.0000 H   0  0  0  0  0  0  0  0  0  0  0  0
    8.0622    5.7150    0.0000 H   0  0  0  0  0  0  0  0  0  0  0  0
    8.2891    4.8681    0.0000 H   0  0  0  0  0  0  0  0  0  0  0  0
   10.9512    6.4050    0.0000 H   0  0  0  0  0  0  0  0  0  0  0  0
   10.3312    7.0250    0.0000 H   0  0  0  0  0  0  0  0  0  0  0  0
    9.7112    6.4050    0.0000 H   0  0  0  0  0  0  0  0  0  0  0  0
  1  3  1  0  0  0  0
  1  7  1  0  0  0  0
  1  9  1  0  0  0  0
  1 10  2  0  0  0  0
  2 14  1  0  0  0  0
  2 15  1  0  0  0  0
  3 15  1  0  0  0  0
  4 11  1  0  0  0  0
  4 41  1  0  0  0  0
  5 12  1  0  0  0  0
  5 42  1  0  0  0  0
  6 13  1  0  0  0  0
  6 43  1  0  0  0  0
  7 21  1  0  0  0  0
  8 16  1  0  0  0  0
  8 53  1  0  0  0  0
  9 55  1  0  0  0  0
 11 12  1  0  0  0  0
 11 13  1  0  0  0  0
 11 29  1  0  0  0  0
 12 14  1  0  0  0  0
 12 30  1  0  0  0  0
 13 15  1  0  0  0  0
 13 31  1  0  0  0  0
 14 16  1  0  0  0  0
 14 32  1  0  0  0  0
 15 33  1  0  0  0  0
 16 34  1  0  0  0  0
 16 35  1  0  0  0  0
 17 18  1  0  0  0  0
 17 19  1  0  0  0  0
 17 22  1  0  0  0  0
 17 36  1  0  0  0  0
 18 20  1  0  0  0  0
 18 37  1  0  0  0  0
 18 38  1  0  0  0  0
 19 21  1  0  0  0  0
 19 39  1  0  0  0  0
 19 40  1  0  0  0  0
 20 23  1  0  0  0  0
 20 44  1  0  0  0  0
 20 45  1  0  0  0  0
 21 46  1  0  0  0  0
 21 47  1  0  0  0  0
 22 48  1  0  0  0  0
 22 49  1  0  0  0  0
 22 50  1  0  0  0  0
 23 24  1  0  0  0  0
 23 51  1  0  0  0  0
 23 52  1  0  0  0  0
 24 25  2  3  0  0  0
 24 54  1  0  0  0  0
 25 26  1  0  0  0  0
 25 27  1  0  0  0  0
 26 28  1  0  0  0  0
 26 56  1  0  0  0  0
 26 57  1  0  0  0  0
 27 58  1  0  0  0  0
 27 59  1  0  0  0  0
 27 60  1  0  0  0  0
 28 61  1  0  0  0  0
 28 62  1  0  0  0  0
 28 63  1  0  0  0  0
M  END
> <PUBCHEM_COMPOUND_CID>
360

> <PUBCHEM_COMPOUND_CANONICALIZED>
1

> <PUBCHEM_CACTVS_COMPLEXITY>
527

> <PUBCHEM_CACTVS_HBOND_ACCEPTOR>
9

> <PUBCHEM_CACTVS_HBOND_DONOR>
5

> <PUBCHEM_CACTVS_ROTATABLE_BOND>
12

> <PUBCHEM_CACTVS_SUBSKEYS>
AAADcfB4PAIAAAAAAAAAAAAAAAAAAAAAAAAkAAAAAAAAAAAAAAAAGgAACCAADRSwgAMCCAAABxCAQiBCAIAAAAAgAAAACAAAAAgREAIAAQACQAAFgAAPAAPA4CQOAAAAAAAAAAAAAAAAAAAAAAAAAAAAAA==

> <PUBCHEM_IUPAC_OPENEYE_NAME>
3,8-dimethyldec-7-enyl [3,4,5-trihydroxy-6-(hydroxymethyl)tetrahydropyran-2-yl] hydrogen phosphate

> <PUBCHEM_IUPAC_CAS_NAME>
3,8-dimethyldec-7-enyl [3,4,5-trihydroxy-6-(hydroxymethyl)-2-oxanyl] hydrogen phosphate

> <PUBCHEM_IUPAC_NAME_MARKUP>
3,8-dimethyldec-7-enyl [3,4,5-trihydroxy-6-(hydroxymethyl)oxan-2-yl] hydrogen phosphate

> <PUBCHEM_IUPAC_NAME>
3,8-dimethyldec-7-enyl [3,4,5-trihydroxy-6-(hydroxymethyl)oxan-2-yl] hydrogen phosphate

> <PUBCHEM_IUPAC_SYSTEMATIC_NAME>
3,8-dimethyldec-7-enyl [6-(hydroxymethyl)-3,4,5-tris(oxidanyl)oxan-2-yl] hydrogen phosphate

> <PUBCHEM_IUPAC_TRADITIONAL_NAME>
3,8-dimethyldec-7-enyl (3,4,5-trihydroxy-6-methylol-tetrahydropyran-2-yl) hydrogen phosphate

> <PUBCHEM_IUPAC_INCHI>
InChI=1S/C18H35O9P/c1-4-12(2)7-5-6-8-13(3)9-10-25-28(23,24)27-18-17(22)16(21)15(20)14(11-19)26-18/h7,13-22H,4-6,8-11H2,1-3H3,(H,23,24)

> <PUBCHEM_IUPAC_INCHIKEY>
TYCMRLLIYCRSPF-UHFFFAOYSA-N

> <PUBCHEM_XLOGP3_AA>
1.5

> <PUBCHEM_EXACT_MASS>
426.20186969

> <PUBCHEM_MOLECULAR_FORMULA>
C18H35O9P

> <PUBCHEM_MOLECULAR_WEIGHT>
426.4

> <PUBCHEM_SMILES>
CCC(=CCCCC(C)CCOP(=O)(O)OC1C(C(C(C(O1)CO)O)O)O)C

> <PUBCHEM_CONNECTIVITY_SMILES>
CCC(=CCCCC(C)CCOP(=O)(O)OC1C(C(C(C(O1)CO)O)O)O)C

> <PUBCHEM_CACTVS_TPSA>
146

> <PUBCHEM_MONOISOTOPIC_WEIGHT>
426.20186969

> <PUBCHEM_TOTAL_CHARGE>
0

> <PUBCHEM_HEAVY_ATOM_COUNT>
28

> <PUBCHEM_ATOM_DEF_STEREO_COUNT>
0

> <PUBCHEM_ATOM_UDEF_STEREO_COUNT>
6

> <PUBCHEM_BOND_DEF_STEREO_COUNT>
0

> <PUBCHEM_BOND_UDEF_STEREO_COUNT>
1

> <PUBCHEM_ISOTOPIC_ATOM_COUNT>
0

> <PUBCHEM_COMPONENT_COUNT>
1

> <PUBCHEM_CACTVS_TAUTO_COUNT>
-1

> <PUBCHEM_COORDINATE_TYPE>
1
5
255

> <PUBCHEM_BONDANNOTATIONS>
14  16  3
17  22  3
24  25  1
15  3  3
11  4  3
12  5  3
13  6  3

$$$$
