352
  -OEChem-08152602402D

 78 79  0     1  0  0  0  0  0999 V2000
    6.8671    1.6702    0.0000 O   0  0  0  0  0  0  0  0  0  0  0  0
    6.8671   -0.3298    0.0000 O   0  0  0  0  0  0  0  0  0  0  0  0
   11.2135    0.1356    0.0000 O   0  0  0  0  0  0  0  0  0  0  0  0
    6.0010    0.1702    0.0000 O   0  0  0  0  0  0  0  0  0  0  0  0
    7.7331   -1.8298    0.0000 O   0  0  0  0  0  0  0  0  0  0  0  0
   12.9455    0.1156    0.0000 O   0  0  0  0  0  0  0  0  0  0  0  0
    3.4030    4.6702    0.0000 O   0  0  0  0  0  0  0  0  0  0  0  0
    2.5369   -1.8298    0.0000 O   0  0  0  0  0  0  0  0  0  0  0  0
    5.1350    4.6702    0.0000 O   0  0  0  0  0  0  0  0  0  0  0  0
    3.4030   -0.3298    0.0000 O   0  0  0  0  0  0  0  0  0  0  0  0
   10.2955   -4.3540    0.0000 O   0  0  0  0  0  0  0  0  0  0  0  0
    9.4469   -2.8441    0.0000 O   0  0  0  0  0  0  0  0  0  0  0  0
    9.4651    1.1702    0.0000 N   0  0  0  0  0  0  0  0  0  0  0  0
    9.4651    3.1702    0.0000 N   0  0  0  0  0  0  0  0  0  0  0  0
    4.2690    1.1702    0.0000 N   0  0  0  0  0  0  0  0  0  0  0  0
    6.0010   -2.8298    0.0000 N   0  0  0  0  0  0  0  0  0  0  0  0
   11.2251    3.2049    0.0000 N   0  0  0  0  0  0  0  0  0  0  0  0
   12.1312    1.6494    0.0000 N   0  0  0  0  0  0  0  0  0  0  0  0
   12.9224   -1.8843    0.0000 N   0  0  0  0  0  0  0  0  0  0  0  0
   12.9953    3.1944    0.0000 N   0  0  0  0  0  0  0  0  0  0  0  0
    7.7331    1.1702    0.0000 C   0  0  3  0  0  0  0  0  0  0  0  0
    7.7331    0.1702    0.0000 C   0  0  3  0  0  0  0  0  0  0  0  0
    8.5991    1.6702    0.0000 C   0  0  0  0  0  0  0  0  0  0  0  0
    8.5991   -0.3298    0.0000 C   0  0  0  0  0  0  0  0  0  0  0  0
    8.5991    2.6702    0.0000 C   0  0  0  0  0  0  0  0  0  0  0  0
   10.3312    1.6702    0.0000 C   0  0  0  0  0  0  0  0  0  0  0  0
    5.1350    1.6702    0.0000 C   0  0  3  0  0  0  0  0  0  0  0  0
    6.0010   -1.8298    0.0000 C   0  0  3  0  0  0  0  0  0  0  0  0
    6.0010    1.1702    0.0000 C   0  0  0  0  0  0  0  0  0  0  0  0
   10.3312    2.6702    0.0000 C   0  0  0  0  0  0  0  0  0  0  0  0
    5.1350    2.6702    0.0000 C   0  0  0  0  0  0  0  0  0  0  0  0
    6.8671   -1.3298    0.0000 C   0  0  0  0  0  0  0  0  0  0  0  0
    5.1350   -1.3298    0.0000 C   0  0  0  0  0  0  0  0  0  0  0  0
   11.2251    1.1356    0.0000 C   0  0  0  0  0  0  0  0  0  0  0  0
    4.2690    3.1702    0.0000 C   0  0  0  0  0  0  0  0  0  0  0  0
    4.2690   -1.8298    0.0000 C   0  0  0  0  0  0  0  0  0  0  0  0
   12.0622   -1.3743    0.0000 C   0  0  3  0  0  0  0  0  0  0  0  0
   11.1904   -1.8642    0.0000 C   0  0  0  0  0  0  0  0  0  0  0  0
   12.1312    2.6910    0.0000 C   0  0  0  0  0  0  0  0  0  0  0  0
   12.0737   -0.3743    0.0000 C   0  0  0  0  0  0  0  0  0  0  0  0
   11.1789   -2.8642    0.0000 C   0  0  0  0  0  0  0  0  0  0  0  0
    4.2690    4.1702    0.0000 C   0  0  0  0  0  0  0  0  0  0  0  0
    3.4030   -1.3298    0.0000 C   0  0  0  0  0  0  0  0  0  0  0  0
   10.3071   -3.3541    0.0000 C   0  0  0  0  0  0  0  0  0  0  0  0
    7.7331    1.7902    0.0000 H   0  0  0  0  0  0  0  0  0  0  0  0
    7.7331   -0.4498    0.0000 H   0  0  0  0  0  0  0  0  0  0  0  0
    8.2891   -0.8667    0.0000 H   0  0  0  0  0  0  0  0  0  0  0  0
    9.1360   -0.6398    0.0000 H   0  0  0  0  0  0  0  0  0  0  0  0
    8.9091    0.2072    0.0000 H   0  0  0  0  0  0  0  0  0  0  0  0
    9.4651    0.5502    0.0000 H   0  0  0  0  0  0  0  0  0  0  0  0
    8.0622    2.9802    0.0000 H   0  0  0  0  0  0  0  0  0  0  0  0
    5.1350    1.0502    0.0000 H   0  0  0  0  0  0  0  0  0  0  0  0
    6.5380   -2.1398    0.0000 H   0  0  0  0  0  0  0  0  0  0  0  0
    5.7456    2.5626    0.0000 H   0  0  0  0  0  0  0  0  0  0  0  0
    5.3471    3.2528    0.0000 H   0  0  0  0  0  0  0  0  0  0  0  0
    9.4651    3.7902    0.0000 H   0  0  0  0  0  0  0  0  0  0  0  0
    5.5335   -0.8548    0.0000 H   0  0  0  0  0  0  0  0  0  0  0  0
    4.7365   -0.8548    0.0000 H   0  0  0  0  0  0  0  0  0  0  0  0
    3.6584    3.2779    0.0000 H   0  0  0  0  0  0  0  0  0  0  0  0
    4.0569    2.5876    0.0000 H   0  0  0  0  0  0  0  0  0  0  0  0
    3.8705   -2.3047    0.0000 H   0  0  0  0  0  0  0  0  0  0  0  0
    4.6675   -2.3047    0.0000 H   0  0  0  0  0  0  0  0  0  0  0  0
    3.7320    1.4802    0.0000 H   0  0  0  0  0  0  0  0  0  0  0  0
    4.2690    0.5502    0.0000 H   0  0  0  0  0  0  0  0  0  0  0  0
   12.0550   -1.9942    0.0000 H   0  0  0  0  0  0  0  0  0  0  0  0
    5.4641   -3.1398    0.0000 H   0  0  0  0  0  0  0  0  0  0  0  0
    6.5380   -3.1398    0.0000 H   0  0  0  0  0  0  0  0  0  0  0  0
   10.9851   -1.2792    0.0000 H   0  0  0  0  0  0  0  0  0  0  0  0
   10.5786   -1.9648    0.0000 H   0  0  0  0  0  0  0  0  0  0  0  0
   11.3842   -3.4492    0.0000 H   0  0  0  0  0  0  0  0  0  0  0  0
   11.7906   -2.7636    0.0000 H   0  0  0  0  0  0  0  0  0  0  0  0
   12.9152   -2.5042    0.0000 H   0  0  0  0  0  0  0  0  0  0  0  0
   13.4628   -1.5805    0.0000 H   0  0  0  0  0  0  0  0  0  0  0  0
   13.5334    2.8865    0.0000 H   0  0  0  0  0  0  0  0  0  0  0  0
   12.9929    3.8144    0.0000 H   0  0  0  0  0  0  0  0  0  0  0  0
    2.8660    4.3602    0.0000 H   0  0  0  0  0  0  0  0  0  0  0  0
    2.0000   -1.5198    0.0000 H   0  0  0  0  0  0  0  0  0  0  0  0
   10.8289   -4.6702    0.0000 H   0  0  0  0  0  0  0  0  0  0  0  0
  1 21  1  0  0  0  0
  1 29  1  0  0  0  0
  2 22  1  0  0  0  0
  2 32  1  0  0  0  0
  3 34  1  0  0  0  0
  3 40  1  0  0  0  0
  4 29  2  0  0  0  0
  5 32  2  0  0  0  0
  6 40  2  0  0  0  0
  7 42  1  0  0  0  0
  7 76  1  0  0  0  0
  8 43  1  0  0  0  0
  8 77  1  0  0  0  0
  9 42  2  0  0  0  0
 10 43  2  0  0  0  0
 11 44  1  0  0  0  0
 11 78  1  0  0  0  0
 12 44  2  0  0  0  0
 13 23  1  0  0  0  0
 13 26  1  0  0  0  0
 13 50  1  0  0  0  0
 14 25  1  0  0  0  0
 14 30  1  0  0  0  0
 14 56  1  0  0  0  0
 15 27  1  0  0  0  0
 15 63  1  0  0  0  0
 15 64  1  0  0  0  0
 16 28  1  0  0  0  0
 16 66  1  0  0  0  0
 16 67  1  0  0  0  0
 17 30  1  0  0  0  0
 17 39  2  0  0  0  0
 18 34  2  0  0  0  0
 18 39  1  0  0  0  0
 19 37  1  0  0  0  0
 19 72  1  0  0  0  0
 19 73  1  0  0  0  0
 20 39  1  0  0  0  0
 20 74  1  0  0  0  0
 20 75  1  0  0  0  0
 21 22  1  0  0  0  0
 21 23  1  0  0  0  0
 21 45  1  0  0  0  0
 22 24  1  0  0  0  0
 22 46  1  0  0  0  0
 23 25  2  0  0  0  0
 24 47  1  0  0  0  0
 24 48  1  0  0  0  0
 24 49  1  0  0  0  0
 25 51  1  0  0  0  0
 26 30  2  0  0  0  0
 26 34  1  0  0  0  0
 27 29  1  0  0  0  0
 27 31  1  0  0  0  0
 27 52  1  0  0  0  0
 28 32  1  0  0  0  0
 28 33  1  0  0  0  0
 28 53  1  0  0  0  0
 31 35  1  0  0  0  0
 31 54  1  0  0  0  0
 31 55  1  0  0  0  0
 33 36  1  0  0  0  0
 33 57  1  0  0  0  0
 33 58  1  0  0  0  0
 35 42  1  0  0  0  0
 35 59  1  0  0  0  0
 35 60  1  0  0  0  0
 36 43  1  0  0  0  0
 36 61  1  0  0  0  0
 36 62  1  0  0  0  0
 37 38  1  0  0  0  0
 37 40  1  0  0  0  0
 37 65  1  0  0  0  0
 38 41  1  0  0  0  0
 38 68  1  0  0  0  0
 38 69  1  0  0  0  0
 41 44  1  0  0  0  0
 41 70  1  0  0  0  0
 41 71  1  0  0  0  0
M  END
> <PUBCHEM_COMPOUND_CID>
352

> <PUBCHEM_COMPOUND_CANONICALIZED>
1

> <PUBCHEM_CACTVS_COMPLEXITY>
1110

> <PUBCHEM_CACTVS_HBOND_ACCEPTOR>
20

> <PUBCHEM_CACTVS_HBOND_DONOR>
9

> <PUBCHEM_CACTVS_ROTATABLE_BOND>
20

> <PUBCHEM_CACTVS_SUBSKEYS>
AAADcfB7/AAAAAAAAAAAAAAAAAAAAAAAAAAsQAAAAAAAAACBgAAAHgAQCAAACDzhkgYD/JbIFgCoAAb2bACAiCkhMqABEKGtXBiHTBJE6UgfTiiO0ArSICCsJggAAAAAAAAAAAAAAAAAAAAAAAAAAAAAAA==

> <PUBCHEM_IUPAC_OPENEYE_NAME>
4-amino-5-[[2-amino-6-[1,2-bis[(2-amino-4-carboxy-butanoyl)oxy]propyl]-5,8-dihydropteridin-4-yl]oxy]-5-oxo-pentanoic acid

> <PUBCHEM_IUPAC_CAS_NAME>
4-amino-5-[[2-amino-6-[1,2-bis(2-amino-4-carboxy-1-oxobutoxy)propyl]-5,8-dihydropteridin-4-yl]oxy]-5-oxopentanoic acid

> <PUBCHEM_IUPAC_NAME_MARKUP>
4-amino-5-[[2-amino-6-[1,2-bis[(2-amino-4-carboxybutanoyl)oxy]propyl]-5,8-dihydropteridin-4-yl]oxy]-5-oxopentanoic acid

> <PUBCHEM_IUPAC_NAME>
4-amino-5-[[2-amino-6-[1,2-bis[(2-amino-4-carboxybutanoyl)oxy]propyl]-5,8-dihydropteridin-4-yl]oxy]-5-oxopentanoic acid

> <PUBCHEM_IUPAC_SYSTEMATIC_NAME>
4-azanyl-5-[[2-azanyl-6-[1,2-bis[(2-azanyl-5-oxidanyl-5-oxidanylidene-pentanoyl)oxy]propyl]-5,8-dihydropteridin-4-yl]oxy]-5-oxidanylidene-pentanoic acid

> <PUBCHEM_IUPAC_TRADITIONAL_NAME>
4-amino-5-[[2-amino-6-[1,2-bis[(2-amino-4-carboxy-butanoyl)oxy]propyl]-5,8-dihydropteridin-4-yl]oxy]-5-keto-valeric acid

> <PUBCHEM_IUPAC_INCHI>
InChI=1S/C24H34N8O12/c1-9(42-21(39)10(25)2-5-14(33)34)18(43-22(40)11(26)3-6-15(35)36)13-8-29-19-17(30-13)20(32-24(28)31-19)44-23(41)12(27)4-7-16(37)38/h8-12,18,30H,2-7,25-27H2,1H3,(H,33,34)(H,35,36)(H,37,38)(H3,28,29,31,32)

> <PUBCHEM_IUPAC_INCHIKEY>
XPPZDBCBKYATPW-UHFFFAOYSA-N

> <PUBCHEM_XLOGP3_AA>
-9.9

> <PUBCHEM_EXACT_MASS>
626.22961855

> <PUBCHEM_MOLECULAR_FORMULA>
C24H34N8O12

> <PUBCHEM_MOLECULAR_WEIGHT>
626.6

> <PUBCHEM_SMILES>
CC(C(C1=CNC2=C(N1)C(=NC(=N2)N)OC(=O)C(CCC(=O)O)N)OC(=O)C(CCC(=O)O)N)OC(=O)C(CCC(=O)O)N

> <PUBCHEM_CONNECTIVITY_SMILES>
CC(C(C1=CNC2=C(N1)C(=NC(=N2)N)OC(=O)C(CCC(=O)O)N)OC(=O)C(CCC(=O)O)N)OC(=O)C(CCC(=O)O)N

> <PUBCHEM_CACTVS_TPSA>
345

> <PUBCHEM_MONOISOTOPIC_WEIGHT>
626.22961855

> <PUBCHEM_TOTAL_CHARGE>
0

> <PUBCHEM_HEAVY_ATOM_COUNT>
44

> <PUBCHEM_ATOM_DEF_STEREO_COUNT>
0

> <PUBCHEM_ATOM_UDEF_STEREO_COUNT>
5

> <PUBCHEM_BOND_DEF_STEREO_COUNT>
0

> <PUBCHEM_BOND_UDEF_STEREO_COUNT>
0

> <PUBCHEM_ISOTOPIC_ATOM_COUNT>
0

> <PUBCHEM_COMPONENT_COUNT>
1

> <PUBCHEM_CACTVS_TAUTO_COUNT>
-1

> <PUBCHEM_COORDINATE_TYPE>
1
5
255

> <PUBCHEM_BONDANNOTATIONS>
21  1  3
27  15  3
28  16  3
17  30  8
17  39  8
18  34  8
18  39  8
37  19  3
22  24  3
26  30  8
26  34  8

$$$$
