353
  -OEChem-08152602402D

 81 82  0     1  0  0  0  0  0999 V2000
    6.8671    1.6702    0.0000 O   0  0  0  0  0  0  0  0  0  0  0  0
    6.8671   -0.3298    0.0000 O   0  0  0  0  0  0  0  0  0  0  0  0
   11.2135    0.1356    0.0000 O   0  0  0  0  0  0  0  0  0  0  0  0
    6.0010    0.1702    0.0000 O   0  0  0  0  0  0  0  0  0  0  0  0
    7.7331   -1.8298    0.0000 O   0  0  0  0  0  0  0  0  0  0  0  0
   12.9455    0.1156    0.0000 O   0  0  0  0  0  0  0  0  0  0  0  0
    3.4030    4.6702    0.0000 O   0  0  0  0  0  0  0  0  0  0  0  0
    2.5369   -1.8298    0.0000 O   0  0  0  0  0  0  0  0  0  0  0  0
    5.1350    4.6702    0.0000 O   0  0  0  0  0  0  0  0  0  0  0  0
    3.4030   -0.3298    0.0000 O   0  0  0  0  0  0  0  0  0  0  0  0
   10.2955   -4.3540    0.0000 O   0  0  0  0  0  0  0  0  0  0  0  0
    9.4469   -2.8441    0.0000 O   0  0  0  0  0  0  0  0  0  0  0  0
    9.4651    1.1702    0.0000 N   0  0  0  0  0  0  0  0  0  0  0  0
    9.4651    3.1702    0.0000 N   0  0  0  0  0  0  0  0  0  0  0  0
   11.2251    3.2049    0.0000 N   0  0  0  0  0  0  0  0  0  0  0  0
   12.1312    1.6494    0.0000 N   0  0  0  0  0  0  0  0  0  0  0  0
    4.2690    1.1702    0.0000 N   0  0  0  0  0  0  0  0  0  0  0  0
    6.0010   -2.8298    0.0000 N   0  0  0  0  0  0  0  0  0  0  0  0
   12.9953    3.1944    0.0000 N   0  0  0  0  0  0  0  0  0  0  0  0
   12.9224   -1.8843    0.0000 N   0  0  0  0  0  0  0  0  0  0  0  0
    7.7331    1.1702    0.0000 C   0  0  3  0  0  0  0  0  0  0  0  0
    7.7331    0.1702    0.0000 C   0  0  3  0  0  0  0  0  0  0  0  0
    8.5991    1.6702    0.0000 C   0  0  0  0  0  0  0  0  0  0  0  0
   10.3312    1.6702    0.0000 C   0  0  0  0  0  0  0  0  0  0  0  0
    8.5991    2.6702    0.0000 C   0  0  0  0  0  0  0  0  0  0  0  0
    8.5991   -0.3298    0.0000 C   0  0  0  0  0  0  0  0  0  0  0  0
   10.3312    2.6702    0.0000 C   0  0  0  0  0  0  0  0  0  0  0  0
    9.4651    0.1702    0.0000 C   0  0  0  0  0  0  0  0  0  0  0  0
    5.1350    1.6702    0.0000 C   0  0  3  0  0  0  0  0  0  0  0  0
    6.0010    1.1702    0.0000 C   0  0  0  0  0  0  0  0  0  0  0  0
    6.0010   -1.8298    0.0000 C   0  0  3  0  0  0  0  0  0  0  0  0
   11.2251    1.1356    0.0000 C   0  0  0  0  0  0  0  0  0  0  0  0
    6.8671   -1.3298    0.0000 C   0  0  0  0  0  0  0  0  0  0  0  0
    5.1350    2.6702    0.0000 C   0  0  0  0  0  0  0  0  0  0  0  0
    5.1350   -1.3298    0.0000 C   0  0  0  0  0  0  0  0  0  0  0  0
    4.2690    3.1702    0.0000 C   0  0  0  0  0  0  0  0  0  0  0  0
    4.2690   -1.8298    0.0000 C   0  0  0  0  0  0  0  0  0  0  0  0
   12.1312    2.6910    0.0000 C   0  0  0  0  0  0  0  0  0  0  0  0
   12.0622   -1.3743    0.0000 C   0  0  3  0  0  0  0  0  0  0  0  0
   11.1904   -1.8642    0.0000 C   0  0  0  0  0  0  0  0  0  0  0  0
   12.0737   -0.3743    0.0000 C   0  0  0  0  0  0  0  0  0  0  0  0
   11.1789   -2.8642    0.0000 C   0  0  0  0  0  0  0  0  0  0  0  0
    4.2690    4.1702    0.0000 C   0  0  0  0  0  0  0  0  0  0  0  0
    3.4030   -1.3298    0.0000 C   0  0  0  0  0  0  0  0  0  0  0  0
   10.3071   -3.3541    0.0000 C   0  0  0  0  0  0  0  0  0  0  0  0
    7.7331    1.7902    0.0000 H   0  0  0  0  0  0  0  0  0  0  0  0
    7.7331   -0.4498    0.0000 H   0  0  0  0  0  0  0  0  0  0  0  0
    8.0622    2.9802    0.0000 H   0  0  0  0  0  0  0  0  0  0  0  0
    8.2891   -0.8667    0.0000 H   0  0  0  0  0  0  0  0  0  0  0  0
    9.1360   -0.6398    0.0000 H   0  0  0  0  0  0  0  0  0  0  0  0
    8.9091    0.2072    0.0000 H   0  0  0  0  0  0  0  0  0  0  0  0
    9.4651    3.7902    0.0000 H   0  0  0  0  0  0  0  0  0  0  0  0
    8.8451    0.1702    0.0000 H   0  0  0  0  0  0  0  0  0  0  0  0
    9.4651   -0.4498    0.0000 H   0  0  0  0  0  0  0  0  0  0  0  0
   10.0851    0.1702    0.0000 H   0  0  0  0  0  0  0  0  0  0  0  0
    5.1350    1.0502    0.0000 H   0  0  0  0  0  0  0  0  0  0  0  0
    6.5380   -2.1398    0.0000 H   0  0  0  0  0  0  0  0  0  0  0  0
    5.7456    2.5626    0.0000 H   0  0  0  0  0  0  0  0  0  0  0  0
    5.3471    3.2528    0.0000 H   0  0  0  0  0  0  0  0  0  0  0  0
    5.5335   -0.8548    0.0000 H   0  0  0  0  0  0  0  0  0  0  0  0
    4.7365   -0.8548    0.0000 H   0  0  0  0  0  0  0  0  0  0  0  0
    3.6584    3.2779    0.0000 H   0  0  0  0  0  0  0  0  0  0  0  0
    4.0569    2.5876    0.0000 H   0  0  0  0  0  0  0  0  0  0  0  0
    3.8705   -2.3047    0.0000 H   0  0  0  0  0  0  0  0  0  0  0  0
    4.6675   -2.3047    0.0000 H   0  0  0  0  0  0  0  0  0  0  0  0
    3.7320    1.4802    0.0000 H   0  0  0  0  0  0  0  0  0  0  0  0
    4.2690    0.5502    0.0000 H   0  0  0  0  0  0  0  0  0  0  0  0
   12.0550   -1.9942    0.0000 H   0  0  0  0  0  0  0  0  0  0  0  0
    5.4641   -3.1398    0.0000 H   0  0  0  0  0  0  0  0  0  0  0  0
    6.5380   -3.1398    0.0000 H   0  0  0  0  0  0  0  0  0  0  0  0
   10.9851   -1.2792    0.0000 H   0  0  0  0  0  0  0  0  0  0  0  0
   10.5786   -1.9648    0.0000 H   0  0  0  0  0  0  0  0  0  0  0  0
   11.3842   -3.4492    0.0000 H   0  0  0  0  0  0  0  0  0  0  0  0
   11.7906   -2.7636    0.0000 H   0  0  0  0  0  0  0  0  0  0  0  0
   13.5334    2.8865    0.0000 H   0  0  0  0  0  0  0  0  0  0  0  0
   12.9929    3.8144    0.0000 H   0  0  0  0  0  0  0  0  0  0  0  0
   12.9152   -2.5042    0.0000 H   0  0  0  0  0  0  0  0  0  0  0  0
   13.4628   -1.5805    0.0000 H   0  0  0  0  0  0  0  0  0  0  0  0
    2.8660    4.3602    0.0000 H   0  0  0  0  0  0  0  0  0  0  0  0
    2.0000   -1.5198    0.0000 H   0  0  0  0  0  0  0  0  0  0  0  0
   10.8289   -4.6702    0.0000 H   0  0  0  0  0  0  0  0  0  0  0  0
  1 21  1  0  0  0  0
  1 30  1  0  0  0  0
  2 22  1  0  0  0  0
  2 33  1  0  0  0  0
  3 32  1  0  0  0  0
  3 41  1  0  0  0  0
  4 30  2  0  0  0  0
  5 33  2  0  0  0  0
  6 41  2  0  0  0  0
  7 43  1  0  0  0  0
  7 79  1  0  0  0  0
  8 44  1  0  0  0  0
  8 80  1  0  0  0  0
  9 43  2  0  0  0  0
 10 44  2  0  0  0  0
 11 45  1  0  0  0  0
 11 81  1  0  0  0  0
 12 45  2  0  0  0  0
 13 23  1  0  0  0  0
 13 24  1  0  0  0  0
 13 28  1  0  0  0  0
 14 25  1  0  0  0  0
 14 27  1  0  0  0  0
 14 52  1  0  0  0  0
 15 27  1  0  0  0  0
 15 38  2  0  0  0  0
 16 32  2  0  0  0  0
 16 38  1  0  0  0  0
 17 29  1  0  0  0  0
 17 66  1  0  0  0  0
 17 67  1  0  0  0  0
 18 31  1  0  0  0  0
 18 69  1  0  0  0  0
 18 70  1  0  0  0  0
 19 38  1  0  0  0  0
 19 75  1  0  0  0  0
 19 76  1  0  0  0  0
 20 39  1  0  0  0  0
 20 77  1  0  0  0  0
 20 78  1  0  0  0  0
 21 22  1  0  0  0  0
 21 23  1  0  0  0  0
 21 46  1  0  0  0  0
 22 26  1  0  0  0  0
 22 47  1  0  0  0  0
 23 25  2  0  0  0  0
 24 27  2  0  0  0  0
 24 32  1  0  0  0  0
 25 48  1  0  0  0  0
 26 49  1  0  0  0  0
 26 50  1  0  0  0  0
 26 51  1  0  0  0  0
 28 53  1  0  0  0  0
 28 54  1  0  0  0  0
 28 55  1  0  0  0  0
 29 30  1  0  0  0  0
 29 34  1  0  0  0  0
 29 56  1  0  0  0  0
 31 33  1  0  0  0  0
 31 35  1  0  0  0  0
 31 57  1  0  0  0  0
 34 36  1  0  0  0  0
 34 58  1  0  0  0  0
 34 59  1  0  0  0  0
 35 37  1  0  0  0  0
 35 60  1  0  0  0  0
 35 61  1  0  0  0  0
 36 43  1  0  0  0  0
 36 62  1  0  0  0  0
 36 63  1  0  0  0  0
 37 44  1  0  0  0  0
 37 64  1  0  0  0  0
 37 65  1  0  0  0  0
 39 40  1  0  0  0  0
 39 41  1  0  0  0  0
 39 68  1  0  0  0  0
 40 42  1  0  0  0  0
 40 71  1  0  0  0  0
 40 72  1  0  0  0  0
 42 45  1  0  0  0  0
 42 73  1  0  0  0  0
 42 74  1  0  0  0  0
M  END
> <PUBCHEM_COMPOUND_CID>
353

> <PUBCHEM_COMPOUND_CANONICALIZED>
1

> <PUBCHEM_CACTVS_COMPLEXITY>
1140

> <PUBCHEM_CACTVS_HBOND_ACCEPTOR>
20

> <PUBCHEM_CACTVS_HBOND_DONOR>
8

> <PUBCHEM_CACTVS_ROTATABLE_BOND>
20

> <PUBCHEM_CACTVS_SUBSKEYS>
AAADcfB7/AAAAAAAAAAAAAAAAAAAAAAAAAAsQAAAAAAAAACBgAAAHgAQCAAACDzhkgYD/JfIFgCoAAb2bACAiCkhMqABEKGtXBiHTBJE6UgfTiiO0ArSICCsJggAAAAAAAAAAAAAAAAAAAAAAAAAAAAAAA==

> <PUBCHEM_IUPAC_OPENEYE_NAME>
4-amino-5-[[2-amino-6-[1,2-bis[(2-amino-4-carboxy-butanoyl)oxy]propyl]-5-methyl-8H-pteridin-4-yl]oxy]-5-oxo-pentanoic acid

> <PUBCHEM_IUPAC_CAS_NAME>
4-amino-5-[[2-amino-6-[1,2-bis(2-amino-4-carboxy-1-oxobutoxy)propyl]-5-methyl-8H-pteridin-4-yl]oxy]-5-oxopentanoic acid

> <PUBCHEM_IUPAC_NAME_MARKUP>
4-amino-5-[[2-amino-6-[1,2-bis[(2-amino-4-carboxybutanoyl)oxy]propyl]-5-methyl-8<I>H</I>-pteridin-4-yl]oxy]-5-oxopentanoic acid

> <PUBCHEM_IUPAC_NAME>
4-amino-5-[[2-amino-6-[1,2-bis[(2-amino-4-carboxybutanoyl)oxy]propyl]-5-methyl-8H-pteridin-4-yl]oxy]-5-oxopentanoic acid

> <PUBCHEM_IUPAC_SYSTEMATIC_NAME>
4-azanyl-5-[[2-azanyl-6-[1,2-bis[(2-azanyl-5-oxidanyl-5-oxidanylidene-pentanoyl)oxy]propyl]-5-methyl-8H-pteridin-4-yl]oxy]-5-oxidanylidene-pentanoic acid

> <PUBCHEM_IUPAC_TRADITIONAL_NAME>
4-amino-5-[[2-amino-6-[1,2-bis[(2-amino-4-carboxy-butanoyl)oxy]propyl]-5-methyl-8H-pteridin-4-yl]oxy]-5-keto-valeric acid

> <PUBCHEM_IUPAC_INCHI>
InChI=1S/C25H36N8O12/c1-10(43-22(40)11(26)3-6-15(34)35)19(44-23(41)12(27)4-7-16(36)37)14-9-30-20-18(33(14)2)21(32-25(29)31-20)45-24(42)13(28)5-8-17(38)39/h9-13,19H,3-8,26-28H2,1-2H3,(H,34,35)(H,36,37)(H,38,39)(H3,29,30,31,32)

> <PUBCHEM_IUPAC_INCHIKEY>
SRBIKUAVFZRKSG-UHFFFAOYSA-N

> <PUBCHEM_XLOGP3_AA>
-9.9

> <PUBCHEM_EXACT_MASS>
640.24526861

> <PUBCHEM_MOLECULAR_FORMULA>
C25H36N8O12

> <PUBCHEM_MOLECULAR_WEIGHT>
640.6

> <PUBCHEM_SMILES>
CC(C(C1=CNC2=C(N1C)C(=NC(=N2)N)OC(=O)C(CCC(=O)O)N)OC(=O)C(CCC(=O)O)N)OC(=O)C(CCC(=O)O)N

> <PUBCHEM_CONNECTIVITY_SMILES>
CC(C(C1=CNC2=C(N1C)C(=NC(=N2)N)OC(=O)C(CCC(=O)O)N)OC(=O)C(CCC(=O)O)N)OC(=O)C(CCC(=O)O)N

> <PUBCHEM_CACTVS_TPSA>
336

> <PUBCHEM_MONOISOTOPIC_WEIGHT>
640.24526861

> <PUBCHEM_TOTAL_CHARGE>
0

> <PUBCHEM_HEAVY_ATOM_COUNT>
45

> <PUBCHEM_ATOM_DEF_STEREO_COUNT>
0

> <PUBCHEM_ATOM_UDEF_STEREO_COUNT>
5

> <PUBCHEM_BOND_DEF_STEREO_COUNT>
0

> <PUBCHEM_BOND_UDEF_STEREO_COUNT>
0

> <PUBCHEM_ISOTOPIC_ATOM_COUNT>
0

> <PUBCHEM_COMPONENT_COUNT>
1

> <PUBCHEM_CACTVS_TAUTO_COUNT>
-1

> <PUBCHEM_COORDINATE_TYPE>
1
5
255

> <PUBCHEM_BONDANNOTATIONS>
21  1  3
15  27  8
15  38  8
16  32  8
16  38  8
29  17  3
31  18  3
39  20  3
22  26  3
24  27  8
24  32  8

$$$$
