625
  -OEChem-08152603023D

 44 45  0     1  0  0  0  0  0999 V2000
   -2.7455    1.9428   -1.1608 P   0  0  1  0  0  0  0  0  0  0  0  0
   -4.0789   -0.6723   -0.9404 P   0  0  2  0  0  0  0  0  0  0  0  0
   -2.8527   -2.6063    0.9196 P   0  0  0  0  0  0  0  0  0  0  0  0
    0.9067    0.7993    0.1816 O   0  0  0  0  0  0  0  0  0  0  0  0
    1.1400    2.9318    3.0528 O   0  0  0  0  0  0  0  0  0  0  0  0
   -1.3069    2.3967   -0.5753 O   0  0  0  0  0  0  0  0  0  0  0  0
   -2.8616    0.3765   -0.7827 O   0  0  0  0  0  0  0  0  0  0  0  0
    3.5753   -2.1571    1.1426 O   0  0  0  0  0  0  0  0  0  0  0  0
   -3.8197    2.6422   -0.1738 O   0  0  0  0  0  0  0  0  0  0  0  0
   -2.9561    2.2412   -2.6168 O   0  0  0  0  0  0  0  0  0  0  0  0
   -3.4193   -2.0796   -0.4992 O   0  0  0  0  0  0  0  0  0  0  0  0
   -4.2545   -0.8239   -2.5402 O   0  0  0  0  0  0  0  0  0  0  0  0
   -5.3334   -0.3116   -0.2007 O   0  0  0  0  0  0  0  0  0  0  0  0
   -2.2108   -4.0422    0.5470 O   0  0  0  0  0  0  0  0  0  0  0  0
   -1.5600   -1.6726    1.1823 O   0  0  0  0  0  0  0  0  0  0  0  0
   -3.8639   -2.6282    2.0278 O   0  0  0  0  0  0  0  0  0  0  0  0
    3.0399   -0.1684    0.1016 N   0  0  0  0  0  0  0  0  0  0  0  0
    4.9100   -1.5297   -0.5826 N   0  0  0  0  0  0  0  0  0  0  0  0
    6.2750   -0.8802   -2.3499 N   0  0  0  0  0  0  0  0  0  0  0  0
    0.9545    1.7195    2.3534 C   0  0  1  0  0  0  0  0  0  0  0  0
    0.5054    1.9636    0.9223 C   0  0  2  0  0  0  0  0  0  0  0  0
    2.2519    0.9782    2.1332 C   0  0  0  0  0  0  0  0  0  0  0  0
    1.9094    0.1036    0.9404 C   0  0  1  0  0  0  0  0  0  0  0  0
   -0.9928    2.1670    0.7876 C   0  0  0  0  0  0  0  0  0  0  0  0
    3.3613    0.7387   -0.8957 C   0  0  0  0  0  0  0  0  0  0  0  0
    3.8331   -1.3317    0.2645 C   0  0  0  0  0  0  0  0  0  0  0  0
    4.3933    0.5672   -1.7195 C   0  0  0  0  0  0  0  0  0  0  0  0
    5.2002   -0.6647   -1.5188 C   0  0  0  0  0  0  0  0  0  0  0  0
    0.2484    1.0849    2.9024 H   0  0  0  0  0  0  0  0  0  0  0  0
    1.0263    2.8241    0.4829 H   0  0  0  0  0  0  0  0  0  0  0  0
    2.5700    0.3991    3.0060 H   0  0  0  0  0  0  0  0  0  0  0  0
    3.0625    1.6848    1.9134 H   0  0  0  0  0  0  0  0  0  0  0  0
    1.4628   -0.8385    1.2792 H   0  0  0  0  0  0  0  0  0  0  0  0
   -1.3258    3.0331    1.3675 H   0  0  0  0  0  0  0  0  0  0  0  0
   -1.5281    1.2818    1.1456 H   0  0  0  0  0  0  0  0  0  0  0  0
    0.2782    3.3788    3.1019 H   0  0  0  0  0  0  0  0  0  0  0  0
    2.7559    1.6326   -0.9888 H   0  0  0  0  0  0  0  0  0  0  0  0
    4.6561    1.2752   -2.4941 H   0  0  0  0  0  0  0  0  0  0  0  0
   -4.0372    3.5897   -0.3048 H   0  0  0  0  0  0  0  0  0  0  0  0
    6.8531   -1.7075   -2.2494 H   0  0  0  0  0  0  0  0  0  0  0  0
    6.5252   -0.2280   -3.0858 H   0  0  0  0  0  0  0  0  0  0  0  0
   -4.7240   -0.1189   -3.0349 H   0  0  0  0  0  0  0  0  0  0  0  0
   -1.8751   -4.6143    1.2697 H   0  0  0  0  0  0  0  0  0  0  0  0
   -1.0836   -1.7478    2.0364 H   0  0  0  0  0  0  0  0  0  0  0  0
  1  6  1  0  0  0  0
  1  7  1  0  0  0  0
  1  9  1  0  0  0  0
  1 10  2  0  0  0  0
  2  7  1  0  0  0  0
  2 11  1  0  0  0  0
  2 12  1  0  0  0  0
  2 13  2  0  0  0  0
  3 11  1  0  0  0  0
  3 14  1  0  0  0  0
  3 15  1  0  0  0  0
  3 16  2  0  0  0  0
  4 21  1  0  0  0  0
  4 23  1  0  0  0  0
  5 20  1  0  0  0  0
  5 36  1  0  0  0  0
  6 24  1  0  0  0  0
  8 26  2  0  0  0  0
  9 39  1  0  0  0  0
 12 42  1  0  0  0  0
 14 43  1  0  0  0  0
 15 44  1  0  0  0  0
 17 23  1  0  0  0  0
 17 25  1  0  0  0  0
 17 26  1  0  0  0  0
 18 26  1  0  0  0  0
 18 28  2  0  0  0  0
 19 28  1  0  0  0  0
 19 40  1  0  0  0  0
 19 41  1  0  0  0  0
 20 21  1  0  0  0  0
 20 22  1  0  0  0  0
 20 29  1  0  0  0  0
 21 24  1  0  0  0  0
 21 30  1  0  0  0  0
 22 23  1  0  0  0  0
 22 31  1  0  0  0  0
 22 32  1  0  0  0  0
 23 33  1  0  0  0  0
 24 34  1  0  0  0  0
 24 35  1  0  0  0  0
 25 27  2  0  0  0  0
 25 37  1  0  0  0  0
 27 28  1  0  0  0  0
 27 38  1  0  0  0  0
M  END
> <PUBCHEM_COMPOUND_CID>
625

> <PUBCHEM_CONFORMER_RMSD>
1.4

> <PUBCHEM_CONFORMER_DIVERSEORDER>
52
232
169
110
265
95
90
99
112
87
147
289
221
233
143
115
76
164
59
125
68
224
186
6
151
194
154
49
217
161
24
55
208
195
101
141
181
192
213
263
16
177
33
230
127
228
83
2
262
113
187
102
116
275
146
168
28
231
63
58
197
41
257
94
277
135
245
92
216
222
13
191
139
253
268
229
60
226
256
98
261
25
43
78
175
134
72
104
27
29
178
73
204
67
138
44
51
54
292
156
132
88
34
283
124
244
80
252
240
136
30
120
269
107
145
234
123
36
188
165
172
85
53
75
250
45
286
4
167
10
14
200
159
218
66
284
109
9
236
293
144
225
251
290
31
211
184
57
201
56
246
282
105
129
126
61
215
259
122
295
62
100
39
47
273
5
157
74
64
3
15
235
248
86
210
209
42
264
148
97
185
227
163
91
84
70
32
140
50
158
162
117
79
183
12
26
46
207
131
179
258
212
96
21
274
272
111
190
160
150
198
249
18
270
219
106
48
11
260
38
243
280
237
182
17
108
255
202
276
206
8
239
137
1
199
180
19
220
166
205
93
65
294
142
118
69
23
82
291
171
176
271
121
153
223
238
128
40
149
152
71
133
189
241
247
288
20
287
130
285
35
81
267
196
119
279
103
114
77
254
22
214
89
266
7
278
174
37
155
281
193
173
203
170
242

> <PUBCHEM_MMFF94_PARTIAL_CHARGES>
36
1 1.51
10 -0.7
11 -0.54
12 -0.77
13 -0.7
14 -0.77
15 -0.77
16 -0.7
17 -0.47
18 -0.66
19 -0.85
2 1.51
20 0.28
21 0.28
23 0.58
24 0.28
25 -0.04
26 0.84
27 -0.14
28 0.49
3 1.51
36 0.4
37 0.15
38 0.15
39 0.5
4 -0.56
40 0.4
41 0.4
42 0.5
43 0.5
44 0.5
5 -0.68
6 -0.55
7 -0.54
8 -0.57
9 -0.77

> <PUBCHEM_EFFECTIVE_ROTOR_COUNT>
9

> <PUBCHEM_PHARMACOPHORE_FEATURES>
16
1 10 acceptor
1 12 acceptor
1 13 acceptor
1 14 acceptor
1 15 acceptor
1 16 acceptor
1 18 donor
1 19 donor
1 4 acceptor
1 5 acceptor
1 5 donor
1 8 acceptor
1 9 acceptor
4 3 14 15 16 anion
5 4 20 21 22 23 rings
6 17 18 25 26 27 28 rings

> <PUBCHEM_HEAVY_ATOM_COUNT>
28

> <PUBCHEM_ATOM_DEF_STEREO_COUNT>
0

> <PUBCHEM_ATOM_UDEF_STEREO_COUNT>
3

> <PUBCHEM_BOND_DEF_STEREO_COUNT>
0

> <PUBCHEM_BOND_UDEF_STEREO_COUNT>
0

> <PUBCHEM_ISOTOPIC_ATOM_COUNT>
0

> <PUBCHEM_COMPONENT_COUNT>
1

> <PUBCHEM_CACTVS_TAUTO_COUNT>
3

> <PUBCHEM_CONFORMER_ID>
0000027100000034

> <PUBCHEM_MMFF94_ENERGY>
-7.8903

> <PUBCHEM_FEATURE_SELFOVERLAP>
81.31

> <PUBCHEM_SHAPE_FINGERPRINT>
10366900 7 18340760507600468855
10577160 103 18044388343078362660
10928967 22 18271796947736179359
11488393 25 17986106538466582984
12363563 72 17489297556352397180
12596602 18 14620503545344516422
12712778 12 18192967397453558690
12788726 201 17914337866382297376
13103583 49 15984838046243958343
13402501 40 18413387640182393647
14114211 68 18044081360116060911
14251740 79 18266747891524996026
14251757 5 18333735710551214247
14932701 244 15575864865165217531
14950920 106 12678878118408060412
20603629 256 16915930953901535760
20693207 138 18340755018447634629
21591331 117 18128278807142284123
23559900 14 18336258058697207660
312425 83 17387128659603422422
484985 159 17274831190525284575
5283178 26 18058183880299868183
574716 61 16443340966326552166

> <PUBCHEM_SHAPE_MULTIPOLES>
496.53
11.7
3.72
2.59
6.09
1.07
-0.17
6.39
7.7
-3.69
-1.67
0.53
-1.04
2.58

> <PUBCHEM_SHAPE_SELFOVERLAP>
981.274

> <PUBCHEM_SHAPE_VOLUME>
297

> <PUBCHEM_COORDINATE_TYPE>
2
5
10

$$$$
