742
  -OEChem-08152603093D

 18 17  0     1  0  0  0  0  0999 V2000
    3.4801    0.6500   -0.0048 O   0  0  0  0  0  0  0  0  0  0  0  0
   -3.5545   -0.5592   -0.3843 O   0  0  0  0  0  0  0  0  0  0  0  0
    2.4355   -1.3495   -0.2822 O   0  0  0  0  0  0  0  0  0  0  0  0
   -1.7346    1.4667   -0.4257 N   0  0  0  0  0  0  0  0  0  0  0  0
   -0.1008   -0.3257    0.1106 C   0  0  0  0  0  0  0  0  0  0  0  0
   -1.4441    0.3342    0.4458 C   0  0  2  0  0  0  0  0  0  0  0  0
    1.1092    0.6005    0.2403 C   0  0  0  0  0  0  0  0  0  0  0  0
   -2.5761   -0.6678    0.3483 C   0  0  0  0  0  0  0  0  0  0  0  0
    2.3852   -0.1491   -0.0480 C   0  0  0  0  0  0  0  0  0  0  0  0
   -0.1385   -0.7375   -0.9079 H   0  0  0  0  0  0  0  0  0  0  0  0
    0.0353   -1.1939    0.7701 H   0  0  0  0  0  0  0  0  0  0  0  0
   -1.4237    0.6890    1.4825 H   0  0  0  0  0  0  0  0  0  0  0  0
    1.1676    1.0012    1.2577 H   0  0  0  0  0  0  0  0  0  0  0  0
    1.0338    1.4286   -0.4720 H   0  0  0  0  0  0  0  0  0  0  0  0
   -2.6464    1.8592   -0.1953 H   0  0  0  0  0  0  0  0  0  0  0  0
   -1.7862    1.1573   -1.3953 H   0  0  0  0  0  0  0  0  0  0  0  0
   -2.4832   -1.5414    1.0176 H   0  0  0  0  0  0  0  0  0  0  0  0
    4.3050    0.1512   -0.1868 H   0  0  0  0  0  0  0  0  0  0  0  0
  1  9  1  0  0  0  0
  1 18  1  0  0  0  0
  2  8  2  0  0  0  0
  3  9  2  0  0  0  0
  4  6  1  0  0  0  0
  4 15  1  0  0  0  0
  4 16  1  0  0  0  0
  5  6  1  0  0  0  0
  5  7  1  0  0  0  0
  5 10  1  0  0  0  0
  5 11  1  0  0  0  0
  6  8  1  0  0  0  0
  6 12  1  0  0  0  0
  7  9  1  0  0  0  0
  7 13  1  0  0  0  0
  7 14  1  0  0  0  0
  8 17  1  0  0  0  0
M  END
> <PUBCHEM_COMPOUND_CID>
742

> <PUBCHEM_CONFORMER_RMSD>
0.6

> <PUBCHEM_CONFORMER_DIVERSEORDER>
13
25
16
22
14
38
3
37
33
27
6
11
35
28
29
26
20
31
21
1
15
36
17
5
32
8
23
7
34
10
9
19
24
30
12
2
4
18

> <PUBCHEM_MMFF94_PARTIAL_CHARGES>
12
1 -0.65
15 0.36
16 0.36
17 0.06
18 0.5
2 -0.57
3 -0.57
4 -0.99
6 0.33
7 0.06
8 0.45
9 0.66

> <PUBCHEM_EFFECTIVE_ROTOR_COUNT>
4

> <PUBCHEM_PHARMACOPHORE_FEATURES>
6
1 1 acceptor
1 2 acceptor
1 3 acceptor
1 4 cation
1 4 donor
3 1 3 9 anion

> <PUBCHEM_HEAVY_ATOM_COUNT>
9

> <PUBCHEM_ATOM_DEF_STEREO_COUNT>
0

> <PUBCHEM_ATOM_UDEF_STEREO_COUNT>
1

> <PUBCHEM_BOND_DEF_STEREO_COUNT>
0

> <PUBCHEM_BOND_UDEF_STEREO_COUNT>
0

> <PUBCHEM_ISOTOPIC_ATOM_COUNT>
0

> <PUBCHEM_COMPONENT_COUNT>
1

> <PUBCHEM_CACTVS_TAUTO_COUNT>
4

> <PUBCHEM_CONFORMER_ID>
000002E60000000D

> <PUBCHEM_MMFF94_ENERGY>
5.0947

> <PUBCHEM_FEATURE_SELFOVERLAP>
30.504

> <PUBCHEM_SHAPE_FINGERPRINT>
11062470 55 17167858690361812695
12897270 3 18260829306347692107
12932764 1 18188500047006605170
14325111 11 18411983533351779264
14390081 3 18187646877486343080
15310529 11 18343017778917145412
20201158 50 18410294735036605642
21293036 1 17749105629876921499
23552423 10 18188777132468944402
3248919 1 16805615745659077698
5460574 1 8718829777652263392

> <PUBCHEM_SHAPE_MULTIPOLES>
162.63
5.62
1.14
0.66
0.35
0.08
0.03
-0.72
-0.48
-0.01
-0.12
-0.14
0.01
0.18

> <PUBCHEM_SHAPE_SELFOVERLAP>
303.292

> <PUBCHEM_SHAPE_VOLUME>
100.9

> <PUBCHEM_COORDINATE_TYPE>
2
5
10

$$$$
