382
  -OEChem-08152602422D

 97100  0     1  0  0  0  0  0999 V2000
   21.4481    2.5190    0.0000 S   0  0  0  0  0  0  0  0  0  0  0  0
    5.3548    2.9206    0.0000 P   0  0  0  0  0  0  0  0  0  0  0  0
    8.4752    1.6808    0.0000 P   0  0  3  0  0  0  0  0  0  0  0  0
   10.1980    1.8589    0.0000 P   0  0  3  0  0  0  0  0  0  0  0  0
    5.9405   -0.0836    0.0000 O   0  0  0  0  0  0  0  0  0  0  0  0
    4.6844    2.1787    0.0000 O   0  0  0  0  0  0  0  0  0  0  0  0
    3.4026    0.4208    0.0000 O   0  0  0  0  0  0  0  0  0  0  0  0
    7.6651    1.0945    0.0000 O   0  0  0  0  0  0  0  0  0  0  0  0
    6.0252    3.6626    0.0000 O   0  0  0  0  0  0  0  0  0  0  0  0
    4.6128    3.5910    0.0000 O   0  0  0  0  0  0  0  0  0  0  0  0
    9.2852    2.2672    0.0000 O   0  0  0  0  0  0  0  0  0  0  0  0
   11.1109    1.4506    0.0000 O   0  0  0  0  0  0  0  0  0  0  0  0
    6.0968    2.2502    0.0000 O   0  0  0  0  0  0  0  0  0  0  0  0
    9.0615    0.8708    0.0000 O   0  0  0  0  0  0  0  0  0  0  0  0
   13.8494    0.2256    0.0000 O   0  0  0  0  0  0  0  0  0  0  0  0
    7.8888    2.4909    0.0000 O   0  0  0  0  0  0  0  0  0  0  0  0
   10.6063    2.7718    0.0000 O   0  0  0  0  0  0  0  0  0  0  0  0
    9.7897    0.9461    0.0000 O   0  0  0  0  0  0  0  0  0  0  0  0
   14.4538    2.8014    0.0000 O   0  0  0  0  0  0  0  0  0  0  0  0
   17.8996    3.1576    0.0000 O   0  0  0  0  0  0  0  0  0  0  0  0
   22.4638    1.1160    0.0000 O   0  0  0  0  0  0  0  0  0  0  0  0
   25.6011    4.4562    0.0000 O   0  0  0  0  0  0  0  0  0  0  0  0
    4.6783   -1.3415    0.0000 N   0  0  0  0  0  0  0  0  0  0  0  0
    4.6783   -2.9510    0.0000 N   0  0  0  0  0  0  0  0  0  0  0  0
    2.8660   -1.1462    0.0000 N   0  0  0  0  0  0  0  0  0  0  0  0
    2.0000   -2.6462    0.0000 N   0  0  0  0  0  0  0  0  0  0  0  0
    2.8660   -4.1462    0.0000 N   0  0  0  0  0  0  0  0  0  0  0  0
   15.4695    1.3984    0.0000 N   0  0  0  0  0  0  0  0  0  0  0  0
   18.9152    1.7546    0.0000 N   0  0  0  0  0  0  0  0  0  0  0  0
    4.9917    1.2271    0.0000 C   0  0  3  0  0  0  0  0  0  0  0  0
    4.4026    0.4191    0.0000 C   0  0  3  0  0  0  0  0  0  0  0  0
    5.9422    0.9164    0.0000 C   0  0  3  0  0  0  0  0  0  0  0  0
    4.9889   -0.3910    0.0000 C   0  0  3  0  0  0  0  0  0  0  0  0
    6.7523    1.5028    0.0000 C   0  0  0  0  0  0  0  0  0  0  0  0
    3.7320   -1.6462    0.0000 C   0  0  0  0  0  0  0  0  0  0  0  0
    5.2619   -2.1462    0.0000 C   0  0  0  0  0  0  0  0  0  0  0  0
    3.7320   -2.6462    0.0000 C   0  0  0  0  0  0  0  0  0  0  0  0
   12.8337    1.6287    0.0000 C   0  0  0  0  0  0  0  0  0  0  0  0
   13.7466    1.2204    0.0000 C   0  0  3  0  0  0  0  0  0  0  0  0
   11.9209    2.0370    0.0000 C   0  0  0  0  0  0  0  0  0  0  0  0
    2.8660   -3.1462    0.0000 C   0  0  0  0  0  0  0  0  0  0  0  0
   13.2421    2.5415    0.0000 C   0  0  0  0  0  0  0  0  0  0  0  0
   12.4254    0.7158    0.0000 C   0  0  0  0  0  0  0  0  0  0  0  0
    2.0000   -1.6462    0.0000 C   0  0  0  0  0  0  0  0  0  0  0  0
   14.5566    1.8067    0.0000 C   0  0  0  0  0  0  0  0  0  0  0  0
   16.2795    1.9848    0.0000 C   0  0  0  0  0  0  0  0  0  0  0  0
   17.1923    1.5765    0.0000 C   0  0  0  0  0  0  0  0  0  0  0  0
   18.0024    2.1629    0.0000 C   0  0  0  0  0  0  0  0  0  0  0  0
   19.7252    2.3409    0.0000 C   0  0  0  0  0  0  0  0  0  0  0  0
   20.6381    1.9326    0.0000 C   0  0  0  0  0  0  0  0  0  0  0  0
   22.3610    2.1107    0.0000 C   0  0  0  0  0  0  0  0  0  0  0  0
   23.1710    2.6971    0.0000 C   0  0  0  0  0  0  0  0  0  0  0  0
   23.0682    3.6918    0.0000 C   0  0  0  0  0  0  0  0  0  0  0  0
   24.0838    2.2888    0.0000 C   0  0  0  0  0  0  0  0  0  0  0  0
   23.8782    4.2782    0.0000 C   0  0  0  0  0  0  0  0  0  0  0  0
   24.8939    2.8751    0.0000 C   0  0  0  0  0  0  0  0  0  0  0  0
   24.7910    3.8698    0.0000 C   0  0  0  0  0  0  0  0  0  0  0  0
    5.4309    1.6647    0.0000 H   0  0  0  0  0  0  0  0  0  0  0  0
    4.1220    0.9720    0.0000 H   0  0  0  0  0  0  0  0  0  0  0  0
    6.4942    0.6340    0.0000 H   0  0  0  0  0  0  0  0  0  0  0  0
    5.4266   -0.8301    0.0000 H   0  0  0  0  0  0  0  0  0  0  0  0
    7.0999    2.0162    0.0000 H   0  0  0  0  0  0  0  0  0  0  0  0
    6.3070    1.9342    0.0000 H   0  0  0  0  0  0  0  0  0  0  0  0
    3.0935    0.9583    0.0000 H   0  0  0  0  0  0  0  0  0  0  0  0
    5.8819   -2.1462    0.0000 H   0  0  0  0  0  0  0  0  0  0  0  0
   13.2444    0.8568    0.0000 H   0  0  0  0  0  0  0  0  0  0  0  0
   12.2685    2.5504    0.0000 H   0  0  0  0  0  0  0  0  0  0  0  0
   11.4757    2.4684    0.0000 H   0  0  0  0  0  0  0  0  0  0  0  0
   13.8080    2.2884    0.0000 H   0  0  0  0  0  0  0  0  0  0  0  0
   13.4952    3.1075    0.0000 H   0  0  0  0  0  0  0  0  0  0  0  0
   12.6761    2.7947    0.0000 H   0  0  0  0  0  0  0  0  0  0  0  0
   11.8595    0.9690    0.0000 H   0  0  0  0  0  0  0  0  0  0  0  0
   12.1723    0.1499    0.0000 H   0  0  0  0  0  0  0  0  0  0  0  0
   12.9914    0.4627    0.0000 H   0  0  0  0  0  0  0  0  0  0  0  0
    5.8346    4.2526    0.0000 H   0  0  0  0  0  0  0  0  0  0  0  0
    4.0228    3.4005    0.0000 H   0  0  0  0  0  0  0  0  0  0  0  0
    1.4631   -1.3362    0.0000 H   0  0  0  0  0  0  0  0  0  0  0  0
    8.8084    0.3049    0.0000 H   0  0  0  0  0  0  0  0  0  0  0  0
    2.3291   -4.4562    0.0000 H   0  0  0  0  0  0  0  0  0  0  0  0
    3.4030   -4.4562    0.0000 H   0  0  0  0  0  0  0  0  0  0  0  0
   14.4154   -0.0275    0.0000 H   0  0  0  0  0  0  0  0  0  0  0  0
   15.5332    0.7817    0.0000 H   0  0  0  0  0  0  0  0  0  0  0  0
   16.6271    2.4982    0.0000 H   0  0  0  0  0  0  0  0  0  0  0  0
   15.8342    2.4163    0.0000 H   0  0  0  0  0  0  0  0  0  0  0  0
   10.2428    3.2740    0.0000 H   0  0  0  0  0  0  0  0  0  0  0  0
   16.8447    1.0631    0.0000 H   0  0  0  0  0  0  0  0  0  0  0  0
   17.6376    1.1450    0.0000 H   0  0  0  0  0  0  0  0  0  0  0  0
   18.9789    1.1378    0.0000 H   0  0  0  0  0  0  0  0  0  0  0  0
   20.0728    2.8543    0.0000 H   0  0  0  0  0  0  0  0  0  0  0  0
   19.2800    2.7724    0.0000 H   0  0  0  0  0  0  0  0  0  0  0  0
   20.2905    1.4192    0.0000 H   0  0  0  0  0  0  0  0  0  0  0  0
   21.0833    1.5012    0.0000 H   0  0  0  0  0  0  0  0  0  0  0  0
   22.5022    3.9449    0.0000 H   0  0  0  0  0  0  0  0  0  0  0  0
   24.1476    1.6720    0.0000 H   0  0  0  0  0  0  0  0  0  0  0  0
   23.8145    4.8949    0.0000 H   0  0  0  0  0  0  0  0  0  0  0  0
   25.4598    2.6220    0.0000 H   0  0  0  0  0  0  0  0  0  0  0  0
   26.1670    4.2031    0.0000 H   0  0  0  0  0  0  0  0  0  0  0  0
  1 50  1  0  0  0  0
  1 51  1  0  0  0  0
  2  6  1  0  0  0  0
  2  9  1  0  0  0  0
  2 10  1  0  0  0  0
  2 13  2  0  0  0  0
  3  8  1  0  0  0  0
  3 11  1  0  0  0  0
  3 14  1  0  0  0  0
  3 16  2  0  0  0  0
  4 11  1  0  0  0  0
  4 12  1  0  0  0  0
  4 17  1  0  0  0  0
  4 18  2  0  0  0  0
  5 32  1  0  0  0  0
  5 33  1  0  0  0  0
  6 30  1  0  0  0  0
  7 31  1  0  0  0  0
  7 64  1  0  0  0  0
  8 34  1  0  0  0  0
  9 75  1  0  0  0  0
 10 76  1  0  0  0  0
 12 40  1  0  0  0  0
 14 78  1  0  0  0  0
 15 39  1  0  0  0  0
 15 81  1  0  0  0  0
 17 85  1  0  0  0  0
 19 45  2  0  0  0  0
 20 48  2  0  0  0  0
 21 51  2  0  0  0  0
 22 57  1  0  0  0  0
 22 97  1  0  0  0  0
 23 33  1  0  0  0  0
 23 35  1  0  0  0  0
 23 36  1  0  0  0  0
 24 36  2  0  0  0  0
 24 37  1  0  0  0  0
 25 35  2  0  0  0  0
 25 44  1  0  0  0  0
 26 41  1  0  0  0  0
 26 44  2  0  0  0  0
 27 41  1  0  0  0  0
 27 79  1  0  0  0  0
 27 80  1  0  0  0  0
 28 45  1  0  0  0  0
 28 46  1  0  0  0  0
 28 82  1  0  0  0  0
 29 48  1  0  0  0  0
 29 49  1  0  0  0  0
 29 88  1  0  0  0  0
 30 31  1  0  0  0  0
 30 32  1  0  0  0  0
 30 58  1  0  0  0  0
 31 33  1  0  0  0  0
 31 59  1  0  0  0  0
 32 34  1  0  0  0  0
 32 60  1  0  0  0  0
 33 61  1  0  0  0  0
 34 62  1  0  0  0  0
 34 63  1  0  0  0  0
 35 37  1  0  0  0  0
 36 65  1  0  0  0  0
 37 41  2  0  0  0  0
 38 39  1  0  0  0  0
 38 40  1  0  0  0  0
 38 42  1  0  0  0  0
 38 43  1  0  0  0  0
 39 45  1  0  0  0  0
 39 66  1  0  0  0  0
 40 67  1  0  0  0  0
 40 68  1  0  0  0  0
 42 69  1  0  0  0  0
 42 70  1  0  0  0  0
 42 71  1  0  0  0  0
 43 72  1  0  0  0  0
 43 73  1  0  0  0  0
 43 74  1  0  0  0  0
 44 77  1  0  0  0  0
 46 47  1  0  0  0  0
 46 83  1  0  0  0  0
 46 84  1  0  0  0  0
 47 48  1  0  0  0  0
 47 86  1  0  0  0  0
 47 87  1  0  0  0  0
 49 50  1  0  0  0  0
 49 89  1  0  0  0  0
 49 90  1  0  0  0  0
 50 91  1  0  0  0  0
 50 92  1  0  0  0  0
 51 52  1  0  0  0  0
 52 53  2  0  0  0  0
 52 54  1  0  0  0  0
 53 55  1  0  0  0  0
 53 93  1  0  0  0  0
 54 56  2  0  0  0  0
 54 94  1  0  0  0  0
 55 57  2  0  0  0  0
 55 95  1  0  0  0  0
 56 57  1  0  0  0  0
 56 96  1  0  0  0  0
M  END
> <PUBCHEM_COMPOUND_CID>
382

> <PUBCHEM_COMPOUND_CANONICALIZED>
1

> <PUBCHEM_CACTVS_COMPLEXITY>
1540

> <PUBCHEM_CACTVS_HBOND_ACCEPTOR>
23

> <PUBCHEM_CACTVS_HBOND_DONOR>
10

> <PUBCHEM_CACTVS_ROTATABLE_BOND>
21

> <PUBCHEM_CACTVS_SUBSKEYS>
AAADcfB7vgNAAAAAAAAAAAAAAAAAAWJAAAA8QAAAAAAAAFgB/AAAHgQQCCAADhzl3wa39r/MFxioQydzdIKCgC01MLAJ2KFuXNiLfjri3VKedQgv1hP7maf6/ALPIAAAAAAAAABAAAAAAAAAAAAAAAAAAA==

> <PUBCHEM_IUPAC_OPENEYE_NAME>
S-[2-[3-[[4-[[[5-(6-aminopurin-9-yl)-4-hydroxy-3-phosphonooxy-tetrahydrofuran-2-yl]methoxy-hydroxy-phosphoryl]oxy-hydroxy-phosphoryl]oxy-2-hydroxy-3,3-dimethyl-butanoyl]amino]propanoylamino]ethyl] 4-hydroxybenzenecarbothioate

> <PUBCHEM_IUPAC_CAS_NAME>
4-hydroxybenzenecarbothioic acid S-[2-[[3-[[4-[[[5-(6-aminopurin-9-yl)-4-hydroxy-3-phosphonooxy-2-oxolanyl]methoxy-hydroxyphosphoryl]oxy-hydroxyphosphoryl]oxy-2-hydroxy-3,3-dimethyl-1-oxobutyl]amino]-1-oxopropyl]amino]ethyl] ester

> <PUBCHEM_IUPAC_NAME_MARKUP>
<I>S</I>-[2-[3-[[4-[[[5-(6-aminopurin-9-yl)-4-hydroxy-3-phosphonooxyoxolan-2-yl]methoxy-hydroxyphosphoryl]oxy-hydroxyphosphoryl]oxy-2-hydroxy-3,3-dimethylbutanoyl]amino]propanoylamino]ethyl] 4-hydroxybenzenecarbothioate

> <PUBCHEM_IUPAC_NAME>
S-[2-[3-[[4-[[[5-(6-aminopurin-9-yl)-4-hydroxy-3-phosphonooxyoxolan-2-yl]methoxy-hydroxyphosphoryl]oxy-hydroxyphosphoryl]oxy-2-hydroxy-3,3-dimethylbutanoyl]amino]propanoylamino]ethyl] 4-hydroxybenzenecarbothioate

> <PUBCHEM_IUPAC_SYSTEMATIC_NAME>
S-[2-[3-[[4-[[[5-(6-aminopurin-9-yl)-4-oxidanyl-3-phosphonooxy-oxolan-2-yl]methoxy-oxidanyl-phosphoryl]oxy-oxidanyl-phosphoryl]oxy-3,3-dimethyl-2-oxidanyl-butanoyl]amino]propanoylamino]ethyl] 4-oxidanylbenzenecarbothioate

> <PUBCHEM_IUPAC_TRADITIONAL_NAME>
4-hydroxythiobenzoic acid S-[2-[3-[[4-[[(5-adenin-9-yl-4-hydroxy-3-phosphonooxy-tetrahydrofuran-2-yl)methoxy-hydroxy-phosphoryl]oxy-hydroxy-phosphoryl]oxy-2-hydroxy-3,3-dimethyl-butanoyl]amino]propanoylamino]ethyl] ester

> <PUBCHEM_IUPAC_INCHI>
InChI=1S/C28H40N7O18P3S/c1-28(2,22(39)25(40)31-8-7-18(37)30-9-10-57-27(41)15-3-5-16(36)6-4-15)12-50-56(47,48)53-55(45,46)49-11-17-21(52-54(42,43)44)20(38)26(51-17)35-14-34-19-23(29)32-13-33-24(19)35/h3-6,13-14,17,20-22,26,36,38-39H,7-12H2,1-2H3,(H,30,37)(H,31,40)(H,45,46)(H,47,48)(H2,29,32,33)(H2,42,43,44)

> <PUBCHEM_IUPAC_INCHIKEY>
LTVXPVBFJBTNIJ-UHFFFAOYSA-N

> <PUBCHEM_XLOGP3_AA>
-4.3

> <PUBCHEM_EXACT_MASS>
887.13633962

> <PUBCHEM_MOLECULAR_FORMULA>
C28H40N7O18P3S

> <PUBCHEM_MOLECULAR_WEIGHT>
887.6

> <PUBCHEM_SMILES>
CC(C)(COP(=O)(O)OP(=O)(O)OCC1C(C(C(O1)N2C=NC3=C(N=CN=C32)N)O)OP(=O)(O)O)C(C(=O)NCCC(=O)NCCSC(=O)C4=CC=C(C=C4)O)O

> <PUBCHEM_CONNECTIVITY_SMILES>
CC(C)(COP(=O)(O)OP(=O)(O)OCC1C(C(C(O1)N2C=NC3=C(N=CN=C32)N)O)OP(=O)(O)O)C(C(=O)NCCC(=O)NCCSC(=O)C4=CC=C(C=C4)O)O

> <PUBCHEM_CACTVS_TPSA>
409

> <PUBCHEM_MONOISOTOPIC_WEIGHT>
887.13633962

> <PUBCHEM_TOTAL_CHARGE>
0

> <PUBCHEM_HEAVY_ATOM_COUNT>
57

> <PUBCHEM_ATOM_DEF_STEREO_COUNT>
0

> <PUBCHEM_ATOM_UDEF_STEREO_COUNT>
5

> <PUBCHEM_BOND_DEF_STEREO_COUNT>
0

> <PUBCHEM_BOND_UDEF_STEREO_COUNT>
0

> <PUBCHEM_ISOTOPIC_ATOM_COUNT>
0

> <PUBCHEM_COMPONENT_COUNT>
1

> <PUBCHEM_CACTVS_TAUTO_COUNT>
-1

> <PUBCHEM_COORDINATE_TYPE>
1
5
255

> <PUBCHEM_BONDANNOTATIONS>
39  15  3
33  23  3
23  35  8
23  36  8
24  36  8
24  37  8
25  35  8
25  44  8
26  41  8
26  44  8
32  34  3
35  37  8
37  41  8
52  53  8
52  54  8
53  55  8
54  56  8
55  57  8
56  57  8
30  6  3
31  7  3

$$$$
