253
  -OEChem-08152602323D

 32 33  0     1  0  0  0  0  0999 V2000
   -1.2239    1.0046    1.3353 S   0  0  0  0  0  0  0  0  0  0  0  0
   -5.4876   -0.9602    0.5038 O   0  0  0  0  0  0  0  0  0  0  0  0
    6.4911   -0.0591    0.7746 O   0  0  0  0  0  0  0  0  0  0  0  0
    5.5605    0.0894   -1.2916 O   0  0  0  0  0  0  0  0  0  0  0  0
   -3.2529   -1.2742   -0.1260 N   0  0  0  0  0  0  0  0  0  0  0  0
   -4.1495    0.7825   -0.3095 N   0  0  0  0  0  0  0  0  0  0  0  0
   -2.1734   -0.4647   -0.6615 C   0  0  1  0  0  0  0  0  0  0  0  0
   -2.7927    0.9422   -0.7953 C   0  0  2  0  0  0  0  0  0  0  0  0
   -0.9621   -0.4474    0.2765 C   0  0  1  0  0  0  0  0  0  0  0  0
   -2.0114    1.9618    0.0219 C   0  0  0  0  0  0  0  0  0  0  0  0
    0.3497   -0.3051   -0.4895 C   0  0  0  0  0  0  0  0  0  0  0  0
    1.5806   -0.2741    0.4160 C   0  0  0  0  0  0  0  0  0  0  0  0
   -4.4232   -0.5344    0.0764 C   0  0  0  0  0  0  0  0  0  0  0  0
    2.9315   -0.1891   -0.3000 C   0  0  0  0  0  0  0  0  0  0  0  0
    4.1269   -0.2260    0.6514 C   0  0  0  0  0  0  0  0  0  0  0  0
    5.4365   -0.0462   -0.0823 C   0  0  0  0  0  0  0  0  0  0  0  0
   -1.9250   -0.8908   -1.6399 H   0  0  0  0  0  0  0  0  0  0  0  0
   -2.8662    1.2590   -1.8412 H   0  0  0  0  0  0  0  0  0  0  0  0
   -0.9250   -1.3475    0.9006 H   0  0  0  0  0  0  0  0  0  0  0  0
   -1.2252    2.4224   -0.5843 H   0  0  0  0  0  0  0  0  0  0  0  0
   -2.6401    2.7549    0.4369 H   0  0  0  0  0  0  0  0  0  0  0  0
    0.4496   -1.1595   -1.1718 H   0  0  0  0  0  0  0  0  0  0  0  0
    0.3443    0.5878   -1.1275 H   0  0  0  0  0  0  0  0  0  0  0  0
   -3.1838   -2.2727    0.0440 H   0  0  0  0  0  0  0  0  0  0  0  0
   -4.8401    1.5265   -0.2958 H   0  0  0  0  0  0  0  0  0  0  0  0
    1.5262    0.5775    1.1032 H   0  0  0  0  0  0  0  0  0  0  0  0
    1.5771   -1.1764    1.0413 H   0  0  0  0  0  0  0  0  0  0  0  0
    3.0134   -1.0169   -1.0158 H   0  0  0  0  0  0  0  0  0  0  0  0
    2.9603    0.7342   -0.8925 H   0  0  0  0  0  0  0  0  0  0  0  0
    4.1541   -1.1872    1.1759 H   0  0  0  0  0  0  0  0  0  0  0  0
    4.0380    0.5808    1.3872 H   0  0  0  0  0  0  0  0  0  0  0  0
    7.3448    0.0542    0.3050 H   0  0  0  0  0  0  0  0  0  0  0  0
  1  9  1  0  0  0  0
  1 10  1  0  0  0  0
  2 13  2  0  0  0  0
  3 16  1  0  0  0  0
  3 32  1  0  0  0  0
  4 16  2  0  0  0  0
  5  7  1  0  0  0  0
  5 13  1  0  0  0  0
  5 24  1  0  0  0  0
  6  8  1  0  0  0  0
  6 13  1  0  0  0  0
  6 25  1  0  0  0  0
  7  8  1  0  0  0  0
  7  9  1  0  0  0  0
  7 17  1  0  0  0  0
  8 10  1  0  0  0  0
  8 18  1  0  0  0  0
  9 11  1  0  0  0  0
  9 19  1  0  0  0  0
 10 20  1  0  0  0  0
 10 21  1  0  0  0  0
 11 12  1  0  0  0  0
 11 22  1  0  0  0  0
 11 23  1  0  0  0  0
 12 14  1  0  0  0  0
 12 26  1  0  0  0  0
 12 27  1  0  0  0  0
 14 15  1  0  0  0  0
 14 28  1  0  0  0  0
 14 29  1  0  0  0  0
 15 16  1  0  0  0  0
 15 30  1  0  0  0  0
 15 31  1  0  0  0  0
M  END
> <PUBCHEM_COMPOUND_CID>
253

> <PUBCHEM_CONFORMER_RMSD>
0.8

> <PUBCHEM_CONFORMER_DIVERSEORDER>
1
93
17
31
107
46
44
33
115
123
103
74
2
108
99
55
9
67
65
88
26
76
52
58
101
61
91
6
69
96
13
90
57
63
111
14
89
72
51
84
87
60
104
68
117
109
71
53
78
15
122
28
42
56
41
20
83
54
4
75
12
119
43
81
100
34
47
86
35
8
77
66
85
70
50
29
62
80
112
73
3
114
92
5
10
59
121
105
110
7
64
116
25
120
11
21
18
40
95
45
49
82
16
118
37
22
97
32
106
27
36
24
113
102
39
30
48
79
38
94
19
98
23

> <PUBCHEM_MMFF94_PARTIAL_CHARGES>
16
1 -0.46
10 0.23
13 0.69
15 0.06
16 0.66
2 -0.57
24 0.37
25 0.37
3 -0.65
32 0.5
4 -0.57
5 -0.73
6 -0.73
7 0.3
8 0.3
9 0.23

> <PUBCHEM_EFFECTIVE_ROTOR_COUNT>
6

> <PUBCHEM_PHARMACOPHORE_FEATURES>
9
1 2 acceptor
1 3 acceptor
1 4 acceptor
1 5 donor
1 6 donor
3 3 4 16 anion
4 11 12 14 15 hydrophobe
5 1 7 8 9 10 rings
5 5 6 7 8 13 rings

> <PUBCHEM_HEAVY_ATOM_COUNT>
16

> <PUBCHEM_ATOM_DEF_STEREO_COUNT>
0

> <PUBCHEM_ATOM_UDEF_STEREO_COUNT>
3

> <PUBCHEM_BOND_DEF_STEREO_COUNT>
0

> <PUBCHEM_BOND_UDEF_STEREO_COUNT>
0

> <PUBCHEM_ISOTOPIC_ATOM_COUNT>
0

> <PUBCHEM_COMPONENT_COUNT>
1

> <PUBCHEM_CACTVS_TAUTO_COUNT>
3

> <PUBCHEM_CONFORMER_ID>
000000FD00000001

> <PUBCHEM_MMFF94_ENERGY>
29.3233

> <PUBCHEM_FEATURE_SELFOVERLAP>
46.301

> <PUBCHEM_SHAPE_FINGERPRINT>
10912923 1 17603583002619701152
11287383 113 18201999962937428282
11315181 36 11602825675022667230
12107183 9 17322094638543437232
12236239 1 17676205766803070222
12916748 109 18273497867012875824
13073987 5 17845936222180551450
13288520 33 18333449859314032783
13533116 47 17385996248721312098
14123238 8 17457781189339412430
1420 363 17989490723333967270
14251718 22 18333169475211432114
14251764 18 17313100861673191554
17834072 33 17967534592876663478
17834076 25 17749106695213472746
187816 3 14490188319624876533
19489759 90 18186517692108789224
200 152 17603303760857016803
20300324 65 18187365419568247269
20645477 70 16128384732070893278
21150785 3 18261967310337473694
2297311 6 18272378567753537412
23402539 116 18040429993036428271
23557571 272 17988372485474967348
23559900 14 18340196488004920776
34797466 226 18201731686564381020
3545911 37 18272089392454437310
42788 4 17530682113196326422
5104073 3 18200032811628047106
542803 24 17748828505812747630

> <PUBCHEM_SHAPE_MULTIPOLES>
305.55
13.49
1.22
1
17.71
0.44
0.01
-1.89
0.07
-1.5
0.04
0.29
0.14
0.32

> <PUBCHEM_SHAPE_SELFOVERLAP>
608.195

> <PUBCHEM_SHAPE_VOLUME>
183

> <PUBCHEM_COORDINATE_TYPE>
2
5
10

$$$$
