224
  -OEChem-08152602303D

 37 39  0     1  0  0  0  0  0999 V2000
   -4.9936    1.2458    0.4839 P   0  0  0  0  0  0  0  0  0  0  0  0
   -0.9939   -0.3903    0.6478 O   0  0  0  0  0  0  0  0  0  0  0  0
    0.1369   -3.4512    0.3595 O   0  0  0  0  0  0  0  0  0  0  0  0
   -1.1574   -1.3180   -2.2087 O   0  0  0  0  0  0  0  0  0  0  0  0
   -3.7233    0.2726    0.7258 O   0  0  0  0  0  0  0  0  0  0  0  0
   -6.0536    0.3067   -0.2968 O   0  0  0  0  0  0  0  0  0  0  0  0
   -4.4647    2.2481   -0.6696 O   0  0  0  0  0  0  0  0  0  0  0  0
   -5.5200    1.9200    1.7170 O   0  0  0  0  0  0  0  0  0  0  0  0
    1.2804   -0.0882    0.0506 N   0  0  0  0  0  0  0  0  0  0  0  0
    2.1501    1.6420   -1.0539 N   0  0  0  0  0  0  0  0  0  0  0  0
    3.2646   -0.8880    1.2011 N   0  0  0  0  0  0  0  0  0  0  0  0
    5.2122    0.4816    0.6656 N   0  0  0  0  0  0  0  0  0  0  0  0
    5.0952    2.3588   -0.8141 N   0  0  0  0  0  0  0  0  0  0  0  0
    0.0982   -2.2496   -0.4068 C   0  0  1  0  0  0  0  0  0  0  0  0
   -1.2846   -2.0552   -0.9997 C   0  0  1  0  0  0  0  0  0  0  0  0
    0.2802   -1.0472    0.5239 C   0  0  2  0  0  0  0  0  0  0  0  0
   -1.9975   -1.2476    0.0792 C   0  0  2  0  0  0  0  0  0  0  0  0
   -3.1667   -0.4022   -0.3909 C   0  0  0  0  0  0  0  0  0  0  0  0
    2.6052   -0.0559    0.3812 C   0  0  0  0  0  0  0  0  0  0  0  0
    1.0556    0.9503   -0.8137 C   0  0  0  0  0  0  0  0  0  0  0  0
    3.1263    1.0241   -0.3135 C   0  0  0  0  0  0  0  0  0  0  0  0
    4.4834    1.2825   -0.1486 C   0  0  0  0  0  0  0  0  0  0  0  0
    4.5671   -0.5389    1.2807 C   0  0  0  0  0  0  0  0  0  0  0  0
    0.8876   -2.3175   -1.1633 H   0  0  0  0  0  0  0  0  0  0  0  0
   -1.8038   -2.9940   -1.2175 H   0  0  0  0  0  0  0  0  0  0  0  0
    0.5878   -1.3513    1.5314 H   0  0  0  0  0  0  0  0  0  0  0  0
   -2.3223   -1.9102    0.8921 H   0  0  0  0  0  0  0  0  0  0  0  0
   -3.9281   -1.0341   -0.8582 H   0  0  0  0  0  0  0  0  0  0  0  0
   -2.8298    0.3519   -1.1090 H   0  0  0  0  0  0  0  0  0  0  0  0
   -0.0245   -4.1906   -0.2511 H   0  0  0  0  0  0  0  0  0  0  0  0
   -2.0363   -1.2787   -2.6226 H   0  0  0  0  0  0  0  0  0  0  0  0
    0.0830    1.1577   -1.2386 H   0  0  0  0  0  0  0  0  0  0  0  0
    5.1812   -1.1593    1.9247 H   0  0  0  0  0  0  0  0  0  0  0  0
    4.5532    2.9583   -1.4216 H   0  0  0  0  0  0  0  0  0  0  0  0
    6.0827    2.5266   -0.6775 H   0  0  0  0  0  0  0  0  0  0  0  0
   -6.9453    0.6628   -0.4976 H   0  0  0  0  0  0  0  0  0  0  0  0
   -5.0286    3.0054   -0.9354 H   0  0  0  0  0  0  0  0  0  0  0  0
  1  5  1  0  0  0  0
  1  6  1  0  0  0  0
  1  7  1  0  0  0  0
  1  8  2  0  0  0  0
  2 16  1  0  0  0  0
  2 17  1  0  0  0  0
  3 14  1  0  0  0  0
  3 30  1  0  0  0  0
  4 15  1  0  0  0  0
  4 31  1  0  0  0  0
  5 18  1  0  0  0  0
  6 36  1  0  0  0  0
  7 37  1  0  0  0  0
  9 16  1  0  0  0  0
  9 19  1  0  0  0  0
  9 20  1  0  0  0  0
 10 20  2  0  0  0  0
 10 21  1  0  0  0  0
 11 19  2  0  0  0  0
 11 23  1  0  0  0  0
 12 22  1  0  0  0  0
 12 23  2  0  0  0  0
 13 22  1  0  0  0  0
 13 34  1  0  0  0  0
 13 35  1  0  0  0  0
 14 15  1  0  0  0  0
 14 16  1  0  0  0  0
 14 24  1  0  0  0  0
 15 17  1  0  0  0  0
 15 25  1  0  0  0  0
 16 26  1  0  0  0  0
 17 18  1  0  0  0  0
 17 27  1  0  0  0  0
 18 28  1  0  0  0  0
 18 29  1  0  0  0  0
 19 21  1  0  0  0  0
 20 32  1  0  0  0  0
 21 22  2  0  0  0  0
 23 33  1  0  0  0  0
M  END
> <PUBCHEM_COMPOUND_CID>
224

> <PUBCHEM_CONFORMER_RMSD>
0.8

> <PUBCHEM_CONFORMER_DIVERSEORDER>
44
132
128
178
117
12
21
143
174
144
80
169
145
11
167
50
51
162
195
224
184
123
18
14
99
5
113
8
138
66
77
172
203
150
108
154
182
205
91
193
158
32
147
84
19
176
127
43
101
198
83
179
54
104
2
133
199
31
218
57
64
13
65
219
220
114
78
130
136
6
217
207
88
110
112
107
210
166
139
225
202
93
152
47
61
151
168
161
156
33
214
22
173
24
1
7
216
75
221
40
67
118
209
26
102
163
105
177
63
15
194
223
121
186
68
175
34
109
9
69
86
74
20
81
191
222
159
137
164
215
157
29
16
125
10
171
92
46
94
35
59
183
82
4
148
87
160
41
190
37
131
42
100
196
212
187
188
192
155
70
79
122
119
211
23
49
30
135
60
208
140
106
45
28
76
213
36
126
153
170
38
85
55
56
146
134
3
197
48
185
142
181
165
141
204
124
226
17
53
89
189
27
90
96
95
97
206
73
149
200
116
98
25
180
62
115
71
58
120
39
103
201
72
52
129
111

> <PUBCHEM_MMFF94_PARTIAL_CHARGES>
31
1 1.51
10 -0.57
11 -0.57
12 -0.62
13 -0.9
14 0.28
15 0.28
16 0.54
17 0.28
18 0.28
19 0.11
2 -0.56
20 0.04
21 0.23
22 0.41
23 0.47
3 -0.68
30 0.4
31 0.4
32 0.15
33 0.15
34 0.4
35 0.4
36 0.5
37 0.5
4 -0.68
5 -0.55
6 -0.77
7 -0.77
8 -0.7
9 0.05

> <PUBCHEM_EFFECTIVE_ROTOR_COUNT>
5

> <PUBCHEM_PHARMACOPHORE_FEATURES>
17
1 13 cation
1 13 donor
1 2 acceptor
1 3 acceptor
1 3 donor
1 4 acceptor
1 4 donor
1 6 acceptor
1 7 acceptor
1 8 acceptor
3 11 12 23 cation
3 9 10 20 cation
3 9 11 19 cation
4 1 6 7 8 anion
5 2 14 15 16 17 rings
5 9 10 19 20 21 rings
6 11 12 19 21 22 23 rings

> <PUBCHEM_HEAVY_ATOM_COUNT>
23

> <PUBCHEM_ATOM_DEF_STEREO_COUNT>
0

> <PUBCHEM_ATOM_UDEF_STEREO_COUNT>
4

> <PUBCHEM_BOND_DEF_STEREO_COUNT>
0

> <PUBCHEM_BOND_UDEF_STEREO_COUNT>
0

> <PUBCHEM_ISOTOPIC_ATOM_COUNT>
0

> <PUBCHEM_COMPONENT_COUNT>
1

> <PUBCHEM_CACTVS_TAUTO_COUNT>
3

> <PUBCHEM_CONFORMER_ID>
000000E00000002C

> <PUBCHEM_MMFF94_ENERGY>
17.659

> <PUBCHEM_FEATURE_SELFOVERLAP>
86.915

> <PUBCHEM_SHAPE_FINGERPRINT>
11089746 13 18130497626445578072
11552529 35 17315081197140606227
12107183 9 18335411332281829418
12236239 1 18336823181872198322
12422481 6 18044365037488139536
12596602 18 17531247283663989441
12633257 1 16588027947893906601
12788726 201 18052535770725440335
12892183 10 17530970185100262267
13103583 49 11891624456116327781
13785724 45 17904195928500687994
14251764 30 13551469233429461768
14294032 229 17988650722800548287
14341114 176 17385730183818389401
14790565 3 18335423490970351084
15475509 8 18338815411928424484
17349148 13 12103578497707401020
1813 80 11314031257632169027
19784866 9 18411134693411733659
20739085 24 17894916187694865748
212916 134 18201707470842420786
21421861 104 17749935705980675296
21524375 3 18342457050000185143
22950370 63 8862942784095820465
23402539 116 17918267671068683813
23559900 14 17561091328224605548
268830 7 18042674169684388316
2838139 119 17846774092352494081
2871803 45 12103848951270606540
314194 84 9439396939340416437
34934 24 18263081171097745564
474 4 18408885109954368075
5104073 3 17969212512203590800
5385378 56 18270408165892215667
59682541 52 15984550992078740300
633830 44 18412545396647365767
7970288 3 7853570184701872089

> <PUBCHEM_SHAPE_MULTIPOLES>
411.19
12.12
2.63
1.27
6.37
0.97
-0.14
-9.7
2.95
0.67
-0.36
0.2
0.02
-1.8

> <PUBCHEM_SHAPE_SELFOVERLAP>
870.039

> <PUBCHEM_SHAPE_VOLUME>
233

> <PUBCHEM_COORDINATE_TYPE>
2
5
10

$$$$
