221
  -OEChem-08152602303D

 35 35  0     1  0  0  0  0  0999 V2000
   -3.1228    1.5326    0.9147 O   0  0  0  0  0  0  0  0  0  0  0  0
   -1.9888   -1.0404    1.4082 O   0  0  0  0  0  0  0  0  0  0  0  0
   -4.3078   -1.1949   -1.2125 O   0  0  0  0  0  0  0  0  0  0  0  0
   -6.7488   -0.1179   -0.3735 O   0  0  0  0  0  0  0  0  0  0  0  0
    5.1625   -1.5360   -0.3715 O   0  0  0  0  0  0  0  0  0  0  0  0
    3.7609    2.8410   -0.2839 O   0  0  0  0  0  0  0  0  0  0  0  0
    0.6082   -0.4842    0.4573 N   0  0  0  0  0  0  0  0  0  0  0  0
    2.2403    1.1598    0.0766 N   0  0  0  0  0  0  0  0  0  0  0  0
    4.4778    0.6565   -0.3324 N   0  0  0  0  0  0  0  0  0  0  0  0
    2.6579   -2.4723    0.1471 N   0  0  0  0  0  0  0  0  0  0  0  0
   -3.0334    0.5371   -0.1035 C   0  0  1  0  0  0  0  0  0  0  0  0
   -1.8129   -0.3669    0.1611 C   0  0  1  0  0  0  0  0  0  0  0  0
   -4.3617   -0.2418   -0.1492 C   0  0  1  0  0  0  0  0  0  0  0  0
   -0.4964    0.4175    0.2114 C   0  0  0  0  0  0  0  0  0  0  0  0
   -5.5642    0.6726   -0.3788 C   0  0  0  0  0  0  0  0  0  0  0  0
    1.9012   -0.1730    0.1967 C   0  0  0  0  0  0  0  0  0  0  0  0
    2.8541   -1.1224    0.0533 C   0  0  0  0  0  0  0  0  0  0  0  0
    4.2653   -0.7067   -0.2345 C   0  0  0  0  0  0  0  0  0  0  0  0
    3.5086    1.6395   -0.1866 C   0  0  0  0  0  0  0  0  0  0  0  0
   -2.8807    1.0522   -1.0597 H   0  0  0  0  0  0  0  0  0  0  0  0
   -1.7472   -1.1390   -0.6142 H   0  0  0  0  0  0  0  0  0  0  0  0
   -4.5129   -0.7990    0.7831 H   0  0  0  0  0  0  0  0  0  0  0  0
   -0.3657    0.9439   -0.7420 H   0  0  0  0  0  0  0  0  0  0  0  0
   -0.5269    1.1586    1.0186 H   0  0  0  0  0  0  0  0  0  0  0  0
   -5.6591    1.4392    0.3956 H   0  0  0  0  0  0  0  0  0  0  0  0
   -5.5046    1.1604   -1.3568 H   0  0  0  0  0  0  0  0  0  0  0  0
    0.3884   -1.4590    0.6323 H   0  0  0  0  0  0  0  0  0  0  0  0
   -3.3509    1.0896    1.7494 H   0  0  0  0  0  0  0  0  0  0  0  0
   -1.9384   -0.3785    2.1183 H   0  0  0  0  0  0  0  0  0  0  0  0
   -5.1579   -1.6672   -1.2234 H   0  0  0  0  0  0  0  0  0  0  0  0
    1.5037    1.8463    0.2018 H   0  0  0  0  0  0  0  0  0  0  0  0
   -6.8215   -0.5303    0.5042 H   0  0  0  0  0  0  0  0  0  0  0  0
    5.4258    0.9658   -0.5270 H   0  0  0  0  0  0  0  0  0  0  0  0
    1.7372   -2.8476    0.3316 H   0  0  0  0  0  0  0  0  0  0  0  0
    3.4402   -3.1027    0.0219 H   0  0  0  0  0  0  0  0  0  0  0  0
  1 11  1  0  0  0  0
  1 28  1  0  0  0  0
  2 12  1  0  0  0  0
  2 29  1  0  0  0  0
  3 13  1  0  0  0  0
  3 30  1  0  0  0  0
  4 15  1  0  0  0  0
  4 32  1  0  0  0  0
  5 18  2  0  0  0  0
  6 19  2  0  0  0  0
  7 14  1  0  0  0  0
  7 16  1  0  0  0  0
  7 27  1  0  0  0  0
  8 16  1  0  0  0  0
  8 19  1  0  0  0  0
  8 31  1  0  0  0  0
  9 18  1  0  0  0  0
  9 19  1  0  0  0  0
  9 33  1  0  0  0  0
 10 17  1  0  0  0  0
 10 34  1  0  0  0  0
 10 35  1  0  0  0  0
 11 12  1  0  0  0  0
 11 13  1  0  0  0  0
 11 20  1  0  0  0  0
 12 14  1  0  0  0  0
 12 21  1  0  0  0  0
 13 15  1  0  0  0  0
 13 22  1  0  0  0  0
 14 23  1  0  0  0  0
 14 24  1  0  0  0  0
 15 25  1  0  0  0  0
 15 26  1  0  0  0  0
 16 17  2  0  0  0  0
 17 18  1  0  0  0  0
M  END
> <PUBCHEM_COMPOUND_CID>
221

> <PUBCHEM_CONFORMER_RMSD>
0.8

> <PUBCHEM_CONFORMER_DIVERSEORDER>
26
107
155
178
100
104
187
86
194
180
105
121
35
224
118
176
197
1
113
221
185
173
76
202
158
211
4
207
58
114
182
8
212
27
151
123
15
65
219
41
156
220
87
61
115
144
13
183
80
154
213
134
164
66
130
3
217
133
110
119
169
22
19
126
152
186
45
146
78
128
16
101
36
94
153
68
64
218
79
165
12
139
117
53
203
149
74
71
188
50
93
44
201
222
67
99
73
200
204
32
46
6
2
23
177
56
127
57
167
51
97
150
140
42
30
190
141
145
62
20
225
81
108
34
54
60
11
7
223
109
174
28
192
172
90
49
9
216
166
163
143
171
14
111
208
40
82
38
210
168
179
191
122
148
24
5
214
98
195
69
132
39
83
70
181
198
31
37
95
131
103
170
92
25
29
175
102
88
205
161
55
112
162
157
142
84
137
138
43
120
116
89
91
193
48
196
18
21
77
106
147
96
206
124
33
125
63
72
85
59
52
215
129
135
75
209
10
199
160
159
17
47
189
136
184

> <PUBCHEM_MMFF94_PARTIAL_CHARGES>
28
1 -0.68
10 -0.9
11 0.28
12 0.28
13 0.28
14 0.37
15 0.28
16 0.21
17 0.11
18 0.62
19 0.69
2 -0.68
27 0.4
28 0.4
29 0.4
3 -0.68
30 0.4
31 0.37
32 0.4
33 0.37
34 0.4
35 0.4
4 -0.68
5 -0.57
6 -0.57
7 -0.87
8 -0.54
9 -0.49

> <PUBCHEM_EFFECTIVE_ROTOR_COUNT>
6

> <PUBCHEM_PHARMACOPHORE_FEATURES>
17
1 1 acceptor
1 1 donor
1 10 cation
1 10 donor
1 2 acceptor
1 2 donor
1 3 acceptor
1 3 donor
1 4 acceptor
1 4 donor
1 5 acceptor
1 6 acceptor
1 7 cation
1 7 donor
1 8 donor
1 9 donor
6 8 9 16 17 18 19 rings

> <PUBCHEM_HEAVY_ATOM_COUNT>
19

> <PUBCHEM_ATOM_DEF_STEREO_COUNT>
0

> <PUBCHEM_ATOM_UDEF_STEREO_COUNT>
3

> <PUBCHEM_BOND_DEF_STEREO_COUNT>
0

> <PUBCHEM_BOND_UDEF_STEREO_COUNT>
0

> <PUBCHEM_ISOTOPIC_ATOM_COUNT>
0

> <PUBCHEM_COMPONENT_COUNT>
1

> <PUBCHEM_CACTVS_TAUTO_COUNT>
19

> <PUBCHEM_CONFORMER_ID>
000000DD0000001A

> <PUBCHEM_MMFF94_ENERGY>
48.0075

> <PUBCHEM_FEATURE_SELFOVERLAP>
86.387

> <PUBCHEM_SHAPE_FINGERPRINT>
10366900 7 17968104088249545546
10595046 47 18341891913897607301
11287383 113 18260831527157001107
11471102 20 18408889534044567080
12107183 9 17621887483098867171
12236239 1 18060701671790606001
12730499 353 18114187431898294091
13081056 2 18259701198812108053
13167823 11 18344143696204564295
13533116 47 18413107260158222369
13836976 161 18202565068706398462
14252887 29 11815901154318834518
14528608 73 18411419552558870837
15242439 84 17967819335859477130
17834072 33 18413106173605245679
17844677 252 18410017611394736549
18186145 218 17676206874799105232
18222031 100 18271530785087706422
200 152 18202282493837913771
20612939 158 18408610262259764644
20645477 56 17749110006612081019
20645477 70 18341897368358607718
21033648 29 17023175025021148317
21267235 1 18341620286711330511
221357 26 18335981986747209444
22224240 67 10087343505713098358
22289505 5 18260823753055478332
23402539 116 18201996604283740701
23402655 69 18412544318583648141
23532345 1 18335985345669662368
23557571 272 16558472980823770129
23559900 14 18335980951733645352
29717793 49 17988927742830433084
3004659 81 18271803501628919034
3060560 45 18411423899904797790
3545911 37 18259988192900590329
4214541 1 18341050718551026577
495365 180 18339917208109595072
522135 26 18410011022650777034
542803 24 18408323281134785513
6327066 14 17974572708883987516
633830 44 18260540105183829763
67856867 119 18342166813105529064
77779 3 18411982468368727357
8272917 22 18341334405214485334
9709674 26 18338807723188468938

> <PUBCHEM_SHAPE_MULTIPOLES>
335.87
13.7
1.95
0.81
12.39
0.49
-0.07
0.16
3.07
-2.88
0.05
0.56
-0.11
-0.38

> <PUBCHEM_SHAPE_SELFOVERLAP>
681.543

> <PUBCHEM_SHAPE_VOLUME>
192.5

> <PUBCHEM_COORDINATE_TYPE>
2
5
10

$$$$
