115
  -OEChem-08152602233D

 26 26  0     1  0  0  0  0  0999 V2000
   -2.8480    0.1957    0.0526 P   0  0  0  0  0  0  0  0  0  0  0  0
    0.2102    1.3252   -0.4740 O   0  0  0  0  0  0  0  0  0  0  0  0
   -1.4675   -0.2895   -0.6288 O   0  0  0  0  0  0  0  0  0  0  0  0
    3.1340   -1.5661   -0.3314 O   0  0  0  0  0  0  0  0  0  0  0  0
    0.3507   -2.2390    0.3212 O   0  0  0  0  0  0  0  0  0  0  0  0
   -2.9119   -0.6412    1.4350 O   0  0  0  0  0  0  0  0  0  0  0  0
   -3.9669   -0.5218   -0.8684 O   0  0  0  0  0  0  0  0  0  0  0  0
   -3.0017    1.6817    0.1946 O   0  0  0  0  0  0  0  0  0  0  0  0
    3.8018    1.1781    0.4352 N   0  0  0  0  0  0  0  0  0  0  0  0
    2.1766   -0.6598    0.2170 C   0  0  2  0  0  0  0  0  0  0  0  0
    0.7832   -1.0298   -0.3027 C   0  0  2  0  0  0  0  0  0  0  0  0
    2.5525    0.7659   -0.2048 C   0  0  1  0  0  0  0  0  0  0  0  0
   -0.2408    0.0622    0.0104 C   0  0  1  0  0  0  0  0  0  0  0  0
    1.4278    1.7384    0.1442 C   0  0  0  0  0  0  0  0  0  0  0  0
    2.2068   -0.7730    1.3086 H   0  0  0  0  0  0  0  0  0  0  0  0
    0.8210   -1.2262   -1.3809 H   0  0  0  0  0  0  0  0  0  0  0  0
    2.7084    0.7772   -1.2917 H   0  0  0  0  0  0  0  0  0  0  0  0
   -0.4153    0.1280    1.0918 H   0  0  0  0  0  0  0  0  0  0  0  0
    1.2757    1.8207    1.2279 H   0  0  0  0  0  0  0  0  0  0  0  0
    1.6603    2.7412   -0.2307 H   0  0  0  0  0  0  0  0  0  0  0  0
    4.0360    2.1277    0.1483 H   0  0  0  0  0  0  0  0  0  0  0  0
    4.5671    0.5876    0.1135 H   0  0  0  0  0  0  0  0  0  0  0  0
    3.9883   -1.3846    0.0952 H   0  0  0  0  0  0  0  0  0  0  0  0
    0.3084   -2.0850    1.2803 H   0  0  0  0  0  0  0  0  0  0  0  0
   -3.6468   -0.4680    2.0609 H   0  0  0  0  0  0  0  0  0  0  0  0
   -4.9127   -0.3104   -0.7172 H   0  0  0  0  0  0  0  0  0  0  0  0
  1  3  1  0  0  0  0
  1  6  1  0  0  0  0
  1  7  1  0  0  0  0
  1  8  2  0  0  0  0
  2 13  1  0  0  0  0
  2 14  1  0  0  0  0
  3 13  1  0  0  0  0
  4 10  1  0  0  0  0
  4 23  1  0  0  0  0
  5 11  1  0  0  0  0
  5 24  1  0  0  0  0
  6 25  1  0  0  0  0
  7 26  1  0  0  0  0
  9 12  1  0  0  0  0
  9 21  1  0  0  0  0
  9 22  1  0  0  0  0
 10 11  1  0  0  0  0
 10 12  1  0  0  0  0
 10 15  1  0  0  0  0
 11 13  1  0  0  0  0
 11 16  1  0  0  0  0
 12 14  1  0  0  0  0
 12 17  1  0  0  0  0
 13 18  1  0  0  0  0
 14 19  1  0  0  0  0
 14 20  1  0  0  0  0
M  END
> <PUBCHEM_COMPOUND_CID>
115

> <PUBCHEM_CONFORMER_RMSD>
0.6

> <PUBCHEM_CONFORMER_DIVERSEORDER>
1
20
22
42
11
24
15
36
46
10
34
23
6
13
19
38
16
43
40
32
26
4
30
31
27
28
39
41
33
47
5
45
25
7
2
44
37
29
9
35
3
18
8
17
21
14
12

> <PUBCHEM_MMFF94_PARTIAL_CHARGES>
20
1 1.51
10 0.28
11 0.28
12 0.27
13 0.56
14 0.28
2 -0.56
21 0.36
22 0.36
23 0.4
24 0.4
25 0.5
26 0.5
3 -0.55
4 -0.68
5 -0.68
6 -0.77
7 -0.77
8 -0.7
9 -0.99

> <PUBCHEM_EFFECTIVE_ROTOR_COUNT>
3.2

> <PUBCHEM_PHARMACOPHORE_FEATURES>
12
1 2 acceptor
1 4 acceptor
1 4 donor
1 5 acceptor
1 5 donor
1 6 acceptor
1 7 acceptor
1 8 acceptor
1 9 cation
1 9 donor
4 1 6 7 8 anion
6 2 10 11 12 13 14 rings

> <PUBCHEM_HEAVY_ATOM_COUNT>
14

> <PUBCHEM_ATOM_DEF_STEREO_COUNT>
0

> <PUBCHEM_ATOM_UDEF_STEREO_COUNT>
4

> <PUBCHEM_BOND_DEF_STEREO_COUNT>
0

> <PUBCHEM_BOND_UDEF_STEREO_COUNT>
0

> <PUBCHEM_ISOTOPIC_ATOM_COUNT>
0

> <PUBCHEM_COMPONENT_COUNT>
1

> <PUBCHEM_CACTVS_TAUTO_COUNT>
1

> <PUBCHEM_CONFORMER_ID>
0000007300000001

> <PUBCHEM_MMFF94_ENERGY>
-8.0947

> <PUBCHEM_FEATURE_SELFOVERLAP>
60.938

> <PUBCHEM_SHAPE_FINGERPRINT>
10219947 1 18410011039609061230
10980938 120 18342176674239397756
11471102 20 18409724049778382605
11471102 22 18261970633666305489
12932764 1 17846499257279054745
13380535 76 18339356487196870134
14144814 61 18342458149079003789
14251717 144 18410567396787832751
14325111 11 18411981355761331069
15219456 202 18334018284796810217
15536298 74 18273494555260781244
15775835 57 18059860588355748793
16945 1 18338520871065236276
18186145 218 18060149738275305092
19422 9 17989207023205579295
200 152 18272642477094527949
20201158 50 18187646869107392155
20279233 1 17458058279122767955
20645477 70 18341324505457189143
23402655 69 18341321228755805917
2748010 2 18265041458406258596
3248919 1 17894635867858603133
53812653 166 18270676592916426000
581208 293 18411131463527657460
63268167 104 18343866614768270888
8809292 202 18114753611714217763

> <PUBCHEM_SHAPE_MULTIPOLES>
245.9
6.17
1.85
0.81
2.41
0.15
0.12
-0.62
0.16
-0.82
0.09
0.49
0.09
0.15

> <PUBCHEM_SHAPE_SELFOVERLAP>
475.112

> <PUBCHEM_SHAPE_VOLUME>
150

> <PUBCHEM_COORDINATE_TYPE>
2
5
10

$$$$
