358
  -OEChem-08152602413D

 21 20  0     1  0  0  0  0  0999 V2000
    0.3673   -1.7574   -0.1207 O   0  0  0  0  0  0  0  0  0  0  0  0
    3.1105    1.4525   -0.1877 O   0  0  0  0  0  0  0  0  0  0  0  0
    2.8609   -0.7752    0.1934 O   0  0  0  0  0  0  0  0  0  0  0  0
   -3.4980    0.7447    0.6732 N   0  0  0  0  0  0  0  0  0  0  0  0
   -2.2414    0.5180   -0.0433 C   0  0  1  0  0  0  0  0  0  0  0  0
   -1.3273   -0.3531    0.8226 C   0  0  0  0  0  0  0  0  0  0  0  0
    0.0164   -0.6127    0.1666 C   0  0  0  0  0  0  0  0  0  0  0  0
   -2.5542   -0.1359   -1.3884 C   0  0  0  0  0  0  0  0  0  0  0  0
    0.8935    0.5917   -0.1014 C   0  0  0  0  0  0  0  0  0  0  0  0
    2.3722    0.3275   -0.0144 C   0  0  0  0  0  0  0  0  0  0  0  0
   -1.7691    1.4894   -0.2287 H   0  0  0  0  0  0  0  0  0  0  0  0
   -1.1361    0.1180    1.7946 H   0  0  0  0  0  0  0  0  0  0  0  0
   -1.7976   -1.3235    1.0271 H   0  0  0  0  0  0  0  0  0  0  0  0
   -3.2417    0.4839   -1.9752 H   0  0  0  0  0  0  0  0  0  0  0  0
   -1.6467   -0.2662   -1.9868 H   0  0  0  0  0  0  0  0  0  0  0  0
   -3.0168   -1.1209   -1.2585 H   0  0  0  0  0  0  0  0  0  0  0  0
    0.6575    0.9660   -1.1020 H   0  0  0  0  0  0  0  0  0  0  0  0
    0.6597    1.3591    0.6444 H   0  0  0  0  0  0  0  0  0  0  0  0
   -4.0980    1.3622    0.1277 H   0  0  0  0  0  0  0  0  0  0  0  0
   -3.3099    1.2289    1.5502 H   0  0  0  0  0  0  0  0  0  0  0  0
    4.0728    1.2717   -0.1273 H   0  0  0  0  0  0  0  0  0  0  0  0
  1  7  2  0  0  0  0
  2 10  1  0  0  0  0
  2 21  1  0  0  0  0
  3 10  2  0  0  0  0
  4  5  1  0  0  0  0
  4 19  1  0  0  0  0
  4 20  1  0  0  0  0
  5  6  1  0  0  0  0
  5  8  1  0  0  0  0
  5 11  1  0  0  0  0
  6  7  1  0  0  0  0
  6 12  1  0  0  0  0
  6 13  1  0  0  0  0
  7  9  1  0  0  0  0
  8 14  1  0  0  0  0
  8 15  1  0  0  0  0
  8 16  1  0  0  0  0
  9 10  1  0  0  0  0
  9 17  1  0  0  0  0
  9 18  1  0  0  0  0
M  END
> <PUBCHEM_COMPOUND_CID>
358

> <PUBCHEM_CONFORMER_RMSD>
0.6

> <PUBCHEM_CONFORMER_DIVERSEORDER>
1
54
83
28
32
119
2
105
11
114
98
47
68
77
81
46
63
25
58
104
33
113
41
121
86
112
48
108
6
84
34
65
18
99
10
27
38
67
61
118
103
80
74
100
53
107
14
64
102
49
21
117
35
70
96
29
111
7
59
88
23
85
42
97
3
37
40
26
45
43
22
30
8
115
92
15
13
109
89
110
56
69
106
82
52
120
31
76
19
116
94
55
17
4
78
57
44
24
101
87
12
20
122
36
60
39
93
75
62
51
73
79
72
16
71
90
95
50
91
9
66
5

> <PUBCHEM_MMFF94_PARTIAL_CHARGES>
12
1 -0.57
10 0.66
19 0.36
2 -0.65
20 0.36
21 0.5
3 -0.57
4 -0.99
5 0.27
6 0.06
7 0.45
9 0.12

> <PUBCHEM_EFFECTIVE_ROTOR_COUNT>
4

> <PUBCHEM_PHARMACOPHORE_FEATURES>
7
1 1 acceptor
1 2 acceptor
1 3 acceptor
1 4 cation
1 4 donor
1 9 anion
3 2 3 10 anion

> <PUBCHEM_HEAVY_ATOM_COUNT>
10

> <PUBCHEM_ATOM_DEF_STEREO_COUNT>
0

> <PUBCHEM_ATOM_UDEF_STEREO_COUNT>
1

> <PUBCHEM_BOND_DEF_STEREO_COUNT>
0

> <PUBCHEM_BOND_UDEF_STEREO_COUNT>
0

> <PUBCHEM_ISOTOPIC_ATOM_COUNT>
0

> <PUBCHEM_COMPONENT_COUNT>
1

> <PUBCHEM_CACTVS_TAUTO_COUNT>
5

> <PUBCHEM_CONFORMER_ID>
0000016600000001

> <PUBCHEM_MMFF94_ENERGY>
2.7458

> <PUBCHEM_FEATURE_SELFOVERLAP>
35.852

> <PUBCHEM_SHAPE_FINGERPRINT>
10857977 72 16081094770628914733
11062470 55 12895069600593179137
12932764 1 17312819372698762298
14325111 11 18410576205670655257
14390081 3 18408885143981537049
15775835 57 18202004338913348157
18186145 218 18413107260137220956
20281407 28 11671778286561917485
20653085 51 18202010935993404437
21028194 46 18114183025240385157
23235685 24 18334858316218225329
3248919 1 18341324556817246754

> <PUBCHEM_SHAPE_MULTIPOLES>
183.21
5.27
1.23
0.92
0.27
0.2
0.18
-1.7
0.13
0.59
0.02
-0.78
0.01
-0.25

> <PUBCHEM_SHAPE_SELFOVERLAP>
345.443

> <PUBCHEM_SHAPE_VOLUME>
113.3

> <PUBCHEM_COORDINATE_TYPE>
2
5
10

$$$$
