415
  -OEChem-08152602453D

 26 27  0     1  0  0  0  0  0999 V2000
    0.4542    2.1824    0.5217 O   0  0  0  0  0  0  0  0  0  0  0  0
    3.2836   -1.3794    0.0506 O   0  0  0  0  0  0  0  0  0  0  0  0
    1.5558    0.1065    0.6533 N   0  0  0  0  0  0  0  0  0  0  0  0
   -3.2602    0.5193   -0.1262 N   0  0  0  0  0  0  0  0  0  0  0  0
    0.5183    0.8712   -0.0346 C   0  0  2  0  0  0  0  0  0  0  0  0
    1.0786    0.9492   -1.4606 C   0  0  0  0  0  0  0  0  0  0  0  0
    1.8711   -0.3440   -1.6222 C   0  0  0  0  0  0  0  0  0  0  0  0
    2.3651   -0.6209   -0.2228 C   0  0  0  0  0  0  0  0  0  0  0  0
   -0.8679    0.2384   -0.0140 C   0  0  0  0  0  0  0  0  0  0  0  0
    1.6964    0.0945    2.0993 C   0  0  0  0  0  0  0  0  0  0  0  0
   -1.0198   -1.1323    0.1304 C   0  0  0  0  0  0  0  0  0  0  0  0
   -2.0031    1.0166   -0.1376 C   0  0  0  0  0  0  0  0  0  0  0  0
   -2.2972   -1.6813    0.1467 C   0  0  0  0  0  0  0  0  0  0  0  0
   -3.3748   -0.8202    0.0161 C   0  0  0  0  0  0  0  0  0  0  0  0
    1.7607    1.8044   -1.5603 H   0  0  0  0  0  0  0  0  0  0  0  0
    0.3123    1.0632   -2.2348 H   0  0  0  0  0  0  0  0  0  0  0  0
    2.7091   -0.2186   -2.3124 H   0  0  0  0  0  0  0  0  0  0  0  0
    1.2387   -1.1735   -1.9516 H   0  0  0  0  0  0  0  0  0  0  0  0
    2.4868   -0.5995    2.3969 H   0  0  0  0  0  0  0  0  0  0  0  0
    0.7512   -0.2176    2.5503 H   0  0  0  0  0  0  0  0  0  0  0  0
    1.9557    1.0995    2.4415 H   0  0  0  0  0  0  0  0  0  0  0  0
    1.3658    2.5139    0.5862 H   0  0  0  0  0  0  0  0  0  0  0  0
   -0.1725   -1.8029    0.2292 H   0  0  0  0  0  0  0  0  0  0  0  0
   -1.9535    2.0932   -0.2640 H   0  0  0  0  0  0  0  0  0  0  0  0
   -2.4449   -2.7494    0.2573 H   0  0  0  0  0  0  0  0  0  0  0  0
   -4.3918   -1.1984    0.0224 H   0  0  0  0  0  0  0  0  0  0  0  0
  1  5  1  0  0  0  0
  1 22  1  0  0  0  0
  2  8  2  0  0  0  0
  3  5  1  0  0  0  0
  3  8  1  0  0  0  0
  3 10  1  0  0  0  0
  4 12  1  0  0  0  0
  4 14  2  0  0  0  0
  5  6  1  0  0  0  0
  5  9  1  0  0  0  0
  6  7  1  0  0  0  0
  6 15  1  0  0  0  0
  6 16  1  0  0  0  0
  7  8  1  0  0  0  0
  7 17  1  0  0  0  0
  7 18  1  0  0  0  0
  9 11  1  0  0  0  0
  9 12  2  0  0  0  0
 10 19  1  0  0  0  0
 10 20  1  0  0  0  0
 10 21  1  0  0  0  0
 11 13  2  0  0  0  0
 11 23  1  0  0  0  0
 12 24  1  0  0  0  0
 13 14  1  0  0  0  0
 13 25  1  0  0  0  0
 14 26  1  0  0  0  0
M  END
> <PUBCHEM_COMPOUND_CID>
415

> <PUBCHEM_CONFORMER_RMSD>
0.6

> <PUBCHEM_CONFORMER_DIVERSEORDER>
4
8
5
1
6
7
3
2

> <PUBCHEM_MMFF94_PARTIAL_CHARGES>
18
1 -0.68
10 0.3
11 -0.15
12 0.16
13 -0.15
14 0.16
2 -0.57
22 0.4
23 0.15
24 0.15
25 0.15
26 0.15
3 -0.66
4 -0.62
5 0.72
7 0.06
8 0.57
9 -0.14

> <PUBCHEM_EFFECTIVE_ROTOR_COUNT>
1.8

> <PUBCHEM_PHARMACOPHORE_FEATURES>
6
1 1 acceptor
1 1 donor
1 2 acceptor
1 4 acceptor
5 3 5 6 7 8 rings
6 4 9 11 12 13 14 rings

> <PUBCHEM_HEAVY_ATOM_COUNT>
14

> <PUBCHEM_ATOM_DEF_STEREO_COUNT>
0

> <PUBCHEM_ATOM_UDEF_STEREO_COUNT>
1

> <PUBCHEM_BOND_DEF_STEREO_COUNT>
0

> <PUBCHEM_BOND_UDEF_STEREO_COUNT>
0

> <PUBCHEM_ISOTOPIC_ATOM_COUNT>
0

> <PUBCHEM_COMPONENT_COUNT>
1

> <PUBCHEM_CACTVS_TAUTO_COUNT>
2

> <PUBCHEM_CONFORMER_ID>
0000019F00000004

> <PUBCHEM_MMFF94_ENERGY>
36.314

> <PUBCHEM_FEATURE_SELFOVERLAP>
30.446

> <PUBCHEM_SHAPE_FINGERPRINT>
10219947 1 15697997410188209662
11031198 65 14345798236024617298
11471102 22 16559028260023466642
11578080 2 17315040378003682780
12326174 3 15913059758424788060
12423570 1 10859007269770517196
12725867 57 18272369788988200660
14128692 85 18041001734692919860
14817 1 11938020148276993864
15207287 21 17702935925087322591
16945 1 18054526724146964372
17990270 104 18268709592019933577
18522853 295 18410867559562945471
19422 9 17749403563131458595
20201158 50 17988647363160293983
20233049 118 18188485766372695589
20645476 183 17240201041101191987
232386 152 18261666051770914258
23552423 10 17750798933639383439
23559900 14 18269271271428212158
25 1 14273746131155178574
2748010 2 18265049331123230621
369184 2 14476969960744699535
528886 8 16081095887098904500
549884 4 17676493881720047351
568465 68 17418376882996695166
57812782 119 17346594158343978127
7364860 26 18267305524198310444
74978 22 18336829788017014287
77492 1 17603589586392979096
8030462 33 17386001823388349451
81228 2 17628657266153795120

> <PUBCHEM_SHAPE_MULTIPOLES>
266.41
4.73
1.59
1.35
2.09
0.16
-0.27
-1.68
0.23
0.18
-0.05
-1.21
0.11
-0.02

> <PUBCHEM_SHAPE_SELFOVERLAP>
567.676

> <PUBCHEM_SHAPE_VOLUME>
148.5

> <PUBCHEM_COORDINATE_TYPE>
2
5
10

$$$$
