843
  -OEChem-08152603163D

 24 23  0     1  0  0  0  0  0999 V2000
   -3.1802   -0.2568    0.3627 P   0  0  0  0  0  0  0  0  0  0  0  0
   -1.8881   -0.2711   -0.6070 O   0  0  0  0  0  0  0  0  0  0  0  0
    3.6837    1.2637    0.8512 O   0  0  0  0  0  0  0  0  0  0  0  0
   -0.7268    1.4559    0.3496 O   0  0  0  0  0  0  0  0  0  0  0  0
    4.4676   -0.8079    0.3650 O   0  0  0  0  0  0  0  0  0  0  0  0
   -3.9040    1.1509    0.0289 O   0  0  0  0  0  0  0  0  0  0  0  0
   -4.1694   -1.3399   -0.3190 O   0  0  0  0  0  0  0  0  0  0  0  0
   -2.9078   -0.4947    1.8192 O   0  0  0  0  0  0  0  0  0  0  0  0
    2.0161   -1.7573   -0.2531 N   0  0  0  0  0  0  0  0  0  0  0  0
    1.6254    0.5512   -1.0754 C   0  0  0  0  0  0  0  0  0  0  0  0
    2.0862   -0.3372    0.0906 C   0  0  2  0  0  0  0  0  0  0  0  0
    0.1975    0.2900   -1.5544 C   0  0  0  0  0  0  0  0  0  0  0  0
   -0.8320    0.5748   -0.4925 C   0  0  0  0  0  0  0  0  0  0  0  0
    3.5318   -0.0217    0.4343 C   0  0  0  0  0  0  0  0  0  0  0  0
    1.7139    1.6064   -0.7854 H   0  0  0  0  0  0  0  0  0  0  0  0
    2.3058    0.4200   -1.9278 H   0  0  0  0  0  0  0  0  0  0  0  0
    1.4806   -0.1655    0.9866 H   0  0  0  0  0  0  0  0  0  0  0  0
   -0.0301    0.9330   -2.4120 H   0  0  0  0  0  0  0  0  0  0  0  0
    0.1002   -0.7489   -1.8884 H   0  0  0  0  0  0  0  0  0  0  0  0
    2.3837   -2.3196    0.5133 H   0  0  0  0  0  0  0  0  0  0  0  0
    2.6009   -1.9505   -1.0652 H   0  0  0  0  0  0  0  0  0  0  0  0
    4.6165    1.4665    1.0771 H   0  0  0  0  0  0  0  0  0  0  0  0
   -3.5415    1.9749    0.4186 H   0  0  0  0  0  0  0  0  0  0  0  0
   -4.0036   -2.2949   -0.1679 H   0  0  0  0  0  0  0  0  0  0  0  0
  1  2  1  0  0  0  0
  1  6  1  0  0  0  0
  1  7  1  0  0  0  0
  1  8  2  0  0  0  0
  2 13  1  0  0  0  0
  3 14  1  0  0  0  0
  3 22  1  0  0  0  0
  4 13  2  0  0  0  0
  5 14  2  0  0  0  0
  6 23  1  0  0  0  0
  7 24  1  0  0  0  0
  9 11  1  0  0  0  0
  9 20  1  0  0  0  0
  9 21  1  0  0  0  0
 10 11  1  0  0  0  0
 10 12  1  0  0  0  0
 10 15  1  0  0  0  0
 10 16  1  0  0  0  0
 11 14  1  0  0  0  0
 11 17  1  0  0  0  0
 12 13  1  0  0  0  0
 12 18  1  0  0  0  0
 12 19  1  0  0  0  0
M  END
> <PUBCHEM_COMPOUND_CID>
843

> <PUBCHEM_CONFORMER_RMSD>
0.6

> <PUBCHEM_CONFORMER_DIVERSEORDER>
19
415
115
460
220
5
458
275
270
380
54
345
396
121
207
90
288
145
441
397
277
381
99
9
290
388
442
103
29
408
289
335
459
189
98
17
392
255
367
387
22
386
112
208
69
384
336
204
197
217
310
53
342
127
167
325
72
366
455
134
376
140
243
407
60
394
12
101
250
358
450
438
225
14
341
433
65
84
67
57
209
413
62
382
421
199
318
10
81
24
375
355
172
233
247
391
42
343
8
401
446
404
50
11
31
414
113
261
63
144
173
371
175
80
16
398
47
420
359
180
110
7
447
462
403
315
125
331
354
411
152
70
278
221
82
36
435
304
122
185
166
192
280
55
308
293
395
262
4
452
440
434
176
141
35
202
38
56
181
340
45
456
148
267
41
368
26
454
61
399
107
46
324
287
184
305
100
66
117
393
346
193
119
294
437
188
109
311
302
410
114
432
281
216
326
338
429
362
259
49
191
286
194
118
195
416
246
168
365
257
218
44
150
120
425
418
363
241
214
162
439
77
445
48
301
285
94
71
68
59
256
74
153
273
106
104
306
284
443
249
461
297
464
372
230
427
350
34
171
419
156
266
91
351
328
92
235
295
131
314
405
300
224
222
78
389
409
30
124
39
147
161
265
263
165
64
229
268
133
18
21
283
73
264
128
239
43
337
333
374
244
253
234
271
1
236
123
79
390
373
126
252
6
353
178
422
282
254
96
465
23
15
274
260
344
298
76
155
58
299
245
356
200
313
347
136
226
51
151
279
360
296
146
201
40
444
95
349
108
453
212
163
111
242
406
33
93
183
2
205
426
323
139
248
303
327
219
370
88
196
329
25
213
129
37
27
135
238
223
198
417
330
215
251
105
463
32
348
231
211
431
13
309
334
364
177
272
322
377
170
3
87
352
179
116
430
169
307
424
20
400
237
130
232
164
102
317
332
448
83
361
402
379
28
369
86
449
149
436
451
466
160
137
186
276
457
157
154
423
85
97
142
291
159
75
206
89
143
210
258
339
321
412
357
52
228
174
428
316
227
187
383
292
385
203
269
158
240
132
378
320
182
190
138
319
312

> <PUBCHEM_MMFF94_PARTIAL_CHARGES>
18
1 1.51
11 0.33
12 0.06
13 0.66
14 0.66
2 -0.42
20 0.36
21 0.36
22 0.5
23 0.5
24 0.5
3 -0.65
4 -0.57
5 -0.57
6 -0.77
7 -0.77
8 -0.7
9 -0.99

> <PUBCHEM_EFFECTIVE_ROTOR_COUNT>
6

> <PUBCHEM_PHARMACOPHORE_FEATURES>
10
1 3 acceptor
1 4 acceptor
1 5 acceptor
1 6 acceptor
1 7 acceptor
1 8 acceptor
1 9 cation
1 9 donor
3 3 5 14 anion
4 1 6 7 8 anion

> <PUBCHEM_HEAVY_ATOM_COUNT>
14

> <PUBCHEM_ATOM_DEF_STEREO_COUNT>
0

> <PUBCHEM_ATOM_UDEF_STEREO_COUNT>
1

> <PUBCHEM_BOND_DEF_STEREO_COUNT>
0

> <PUBCHEM_BOND_UDEF_STEREO_COUNT>
0

> <PUBCHEM_ISOTOPIC_ATOM_COUNT>
0

> <PUBCHEM_COMPONENT_COUNT>
1

> <PUBCHEM_CACTVS_TAUTO_COUNT>
1

> <PUBCHEM_CONFORMER_ID>
0000034B00000013

> <PUBCHEM_MMFF94_ENERGY>
-21.7568

> <PUBCHEM_FEATURE_SELFOVERLAP>
50.845

> <PUBCHEM_SHAPE_FINGERPRINT>
10498660 4 13398636000424346947
10980938 120 13758081761733835828
11031198 65 13183026215582366924
114248 4 8142075473077073596
12251169 10 17418091044074281263
12346645 44 14979960250362336477
12815109 37 16443061703484689900
13549 16 7781525827615012382
14252887 29 18187653483151384122
15375358 24 18113613474006703831
17834072 14 17167859802742596132
18186145 218 14779551213985577501
20201158 50 17530685407109376963
20233049 118 14333125256930050994
20279233 1 18412267211936908687
20281475 54 16732986409801095146
20645477 70 16732985374687836951
20653085 51 10303801107797093919
20711985 327 17676209073769736996
21119208 17 12757143584865990763
21501925 9 17968095356180125773
22485316 2 18410007732663662763
23402539 116 16226040068318949174
25 1 11671787074223209052
3248919 1 17749400286213713365
9882013 296 17346319331902762607

> <PUBCHEM_SHAPE_MULTIPOLES>
245.9
8.23
1.31
1.19
0.33
0.13
0.06
1.97
2.02
0.09
-0.02
0.13
-0.06
0.2

> <PUBCHEM_SHAPE_SELFOVERLAP>
462.555

> <PUBCHEM_SHAPE_VOLUME>
152.4

> <PUBCHEM_COORDINATE_TYPE>
2
5
10

$$$$
