859
  -OEChem-08152603182D

 92 91  0     1  0  0  0  0  0999 V2000
    7.7331    4.0950    0.0000 S   0  0  0  0  0  0  0  0  0  0  0  0
    6.0010    3.0950    0.0000 O   0  0  0  0  0  0  0  0  0  0  0  0
    9.4651    7.0950    0.0000 O   0  0  0  0  0  0  0  0  0  0  0  0
    6.8671    4.5950    0.0000 O   0  0  0  0  0  0  0  0  0  0  0  0
    5.1350   -1.4050    0.0000 O   0  0  0  0  0  0  0  0  0  0  0  0
    4.2690    0.0950    0.0000 O   0  0  0  0  0  0  0  0  0  0  0  0
    2.5369    6.0950    0.0000 O   0  0  0  0  0  0  0  0  0  0  0  0
    3.4030    4.5950    0.0000 O   0  0  0  0  0  0  0  0  0  0  0  0
   12.0632    4.5950    0.0000 O   0  0  0  0  0  0  0  0  0  0  0  0
    7.7331    6.0950    0.0000 N   0  0  0  0  0  0  0  0  0  0  0  0
   10.3312    5.5950    0.0000 N   0  0  0  0  0  0  0  0  0  0  0  0
    4.2690    7.0950    0.0000 N   0  0  0  0  0  0  0  0  0  0  0  0
    6.8671    2.5950    0.0000 C   0  0  3  0  0  0  0  0  0  0  0  0
    7.7331    3.0950    0.0000 C   0  0  3  0  0  0  0  0  0  0  0  0
    6.8671    1.5950    0.0000 C   0  0  0  0  0  0  0  0  0  0  0  0
    6.0010    1.0950    0.0000 C   0  0  0  0  0  0  0  0  0  0  0  0
    8.5991    5.5950    0.0000 C   0  0  3  0  0  0  0  0  0  0  0  0
    8.5991    4.5950    0.0000 C   0  0  0  0  0  0  0  0  0  0  0  0
    6.0010    0.0950    0.0000 C   0  0  0  0  0  0  0  0  0  0  0  0
    8.5991    2.5950    0.0000 C   0  0  0  0  0  0  0  0  0  0  0  0
    9.4651    6.0950    0.0000 C   0  0  0  0  0  0  0  0  0  0  0  0
    6.0010    6.0950    0.0000 C   0  0  0  0  0  0  0  0  0  0  0  0
    6.8671    5.5950    0.0000 C   0  0  0  0  0  0  0  0  0  0  0  0
    5.1350    5.5950    0.0000 C   0  0  0  0  0  0  0  0  0  0  0  0
    8.5991    1.5950    0.0000 C   0  0  0  0  0  0  0  0  0  0  0  0
    4.2690    6.0950    0.0000 C   0  0  3  0  0  0  0  0  0  0  0  0
    5.1350   -0.4050    0.0000 C   0  0  0  0  0  0  0  0  0  0  0  0
   11.1972    6.0950    0.0000 C   0  0  0  0  0  0  0  0  0  0  0  0
   12.9292   -4.9050    0.0000 C   0  0  0  0  0  0  0  0  0  0  0  0
   12.9292   -5.9050    0.0000 C   0  0  0  0  0  0  0  0  0  0  0  0
    9.4651    1.0950    0.0000 C   0  0  0  0  0  0  0  0  0  0  0  0
   12.0632   -4.4050    0.0000 C   0  0  0  0  0  0  0  0  0  0  0  0
   13.7953   -6.4050    0.0000 C   0  0  0  0  0  0  0  0  0  0  0  0
    3.4030    5.5950    0.0000 C   0  0  0  0  0  0  0  0  0  0  0  0
   12.0632    5.5950    0.0000 C   0  0  0  0  0  0  0  0  0  0  0  0
    9.4651    0.0950    0.0000 C   0  0  0  0  0  0  0  0  0  0  0  0
   12.0632   -3.4050    0.0000 C   0  0  0  0  0  0  0  0  0  0  0  0
   13.7953   -7.4050    0.0000 C   0  0  0  0  0  0  0  0  0  0  0  0
   11.1972   -2.9050    0.0000 C   0  0  0  0  0  0  0  0  0  0  0  0
   11.1972   -1.9050    0.0000 C   0  0  0  0  0  0  0  0  0  0  0  0
   10.3312   -0.4050    0.0000 C   0  0  0  0  0  0  0  0  0  0  0  0
   12.9292    6.0950    0.0000 C   0  0  0  0  0  0  0  0  0  0  0  0
   10.3312   -1.4050    0.0000 C   0  0  0  0  0  0  0  0  0  0  0  0
    6.3301    2.2850    0.0000 H   0  0  0  0  0  0  0  0  0  0  0  0
    8.2700    3.4050    0.0000 H   0  0  0  0  0  0  0  0  0  0  0  0
    7.0791    1.0124    0.0000 H   0  0  0  0  0  0  0  0  0  0  0  0
    7.4776    1.7027    0.0000 H   0  0  0  0  0  0  0  0  0  0  0  0
    5.7890    1.6776    0.0000 H   0  0  0  0  0  0  0  0  0  0  0  0
    5.3905    0.9873    0.0000 H   0  0  0  0  0  0  0  0  0  0  0  0
    8.5991    6.2150    0.0000 H   0  0  0  0  0  0  0  0  0  0  0  0
    8.8112    4.0124    0.0000 H   0  0  0  0  0  0  0  0  0  0  0  0
    9.2097    4.7027    0.0000 H   0  0  0  0  0  0  0  0  0  0  0  0
    6.2131   -0.4876    0.0000 H   0  0  0  0  0  0  0  0  0  0  0  0
    6.6116    0.2027    0.0000 H   0  0  0  0  0  0  0  0  0  0  0  0
    9.1360    2.9050    0.0000 H   0  0  0  0  0  0  0  0  0  0  0  0
    7.7331    6.7150    0.0000 H   0  0  0  0  0  0  0  0  0  0  0  0
    5.4641    2.7850    0.0000 H   0  0  0  0  0  0  0  0  0  0  0  0
    6.3996    6.5700    0.0000 H   0  0  0  0  0  0  0  0  0  0  0  0
    5.6025    6.5700    0.0000 H   0  0  0  0  0  0  0  0  0  0  0  0
    4.7365    5.1200    0.0000 H   0  0  0  0  0  0  0  0  0  0  0  0
    5.5335    5.1200    0.0000 H   0  0  0  0  0  0  0  0  0  0  0  0
    8.0622    1.2850    0.0000 H   0  0  0  0  0  0  0  0  0  0  0  0
    4.8059    6.4050    0.0000 H   0  0  0  0  0  0  0  0  0  0  0  0
   10.3312    4.9750    0.0000 H   0  0  0  0  0  0  0  0  0  0  0  0
   11.5957    6.5700    0.0000 H   0  0  0  0  0  0  0  0  0  0  0  0
   10.7987    6.5700    0.0000 H   0  0  0  0  0  0  0  0  0  0  0  0
   13.5398   -5.0127    0.0000 H   0  0  0  0  0  0  0  0  0  0  0  0
   13.1413   -4.3224    0.0000 H   0  0  0  0  0  0  0  0  0  0  0  0
   12.3187   -5.7973    0.0000 H   0  0  0  0  0  0  0  0  0  0  0  0
   12.7172   -6.4876    0.0000 H   0  0  0  0  0  0  0  0  0  0  0  0
   10.0021    1.4050    0.0000 H   0  0  0  0  0  0  0  0  0  0  0  0
   11.4526   -4.2973    0.0000 H   0  0  0  0  0  0  0  0  0  0  0  0
   11.8512   -4.9876    0.0000 H   0  0  0  0  0  0  0  0  0  0  0  0
   14.4058   -6.5127    0.0000 H   0  0  0  0  0  0  0  0  0  0  0  0
   14.0073   -5.8224    0.0000 H   0  0  0  0  0  0  0  0  0  0  0  0
    3.7320    7.4050    0.0000 H   0  0  0  0  0  0  0  0  0  0  0  0
    4.8059    7.4050    0.0000 H   0  0  0  0  0  0  0  0  0  0  0  0
    4.5981   -1.7150    0.0000 H   0  0  0  0  0  0  0  0  0  0  0  0
    8.9282   -0.2150    0.0000 H   0  0  0  0  0  0  0  0  0  0  0  0
   12.6002   -3.0950    0.0000 H   0  0  0  0  0  0  0  0  0  0  0  0
   13.1753   -7.4050    0.0000 H   0  0  0  0  0  0  0  0  0  0  0  0
   13.7953   -8.0250    0.0000 H   0  0  0  0  0  0  0  0  0  0  0  0
   14.4153   -7.4050    0.0000 H   0  0  0  0  0  0  0  0  0  0  0  0
   10.6603   -3.2150    0.0000 H   0  0  0  0  0  0  0  0  0  0  0  0
   11.8078   -2.0127    0.0000 H   0  0  0  0  0  0  0  0  0  0  0  0
   11.4092   -1.3224    0.0000 H   0  0  0  0  0  0  0  0  0  0  0  0
   10.8681   -0.0950    0.0000 H   0  0  0  0  0  0  0  0  0  0  0  0
   13.2392    5.5581    0.0000 H   0  0  0  0  0  0  0  0  0  0  0  0
   13.4662    6.4050    0.0000 H   0  0  0  0  0  0  0  0  0  0  0  0
   12.6192    6.6319    0.0000 H   0  0  0  0  0  0  0  0  0  0  0  0
    9.7942   -1.7150    0.0000 H   0  0  0  0  0  0  0  0  0  0  0  0
    2.0000    5.7850    0.0000 H   0  0  0  0  0  0  0  0  0  0  0  0
  1 14  1  0  0  0  0
  1 18  1  0  0  0  0
  2 13  1  0  0  0  0
  2 57  1  0  0  0  0
  3 21  2  0  0  0  0
  4 23  2  0  0  0  0
  5 27  1  0  0  0  0
  5 78  1  0  0  0  0
  6 27  2  0  0  0  0
  7 34  1  0  0  0  0
  7 92  1  0  0  0  0
  8 34  2  0  0  0  0
  9 35  2  0  0  0  0
 10 17  1  0  0  0  0
 10 23  1  0  0  0  0
 10 56  1  0  0  0  0
 11 21  1  0  0  0  0
 11 28  1  0  0  0  0
 11 64  1  0  0  0  0
 12 26  1  0  0  0  0
 12 76  1  0  0  0  0
 12 77  1  0  0  0  0
 13 14  1  0  0  0  0
 13 15  1  0  0  0  0
 13 44  1  0  0  0  0
 14 20  1  0  0  0  0
 14 45  1  0  0  0  0
 15 16  1  0  0  0  0
 15 46  1  0  0  0  0
 15 47  1  0  0  0  0
 16 19  1  0  0  0  0
 16 48  1  0  0  0  0
 16 49  1  0  0  0  0
 17 18  1  0  0  0  0
 17 21  1  0  0  0  0
 17 50  1  0  0  0  0
 18 51  1  0  0  0  0
 18 52  1  0  0  0  0
 19 27  1  0  0  0  0
 19 53  1  0  0  0  0
 19 54  1  0  0  0  0
 20 25  2  3  0  0  0
 20 55  1  0  0  0  0
 22 23  1  0  0  0  0
 22 24  1  0  0  0  0
 22 58  1  0  0  0  0
 22 59  1  0  0  0  0
 24 26  1  0  0  0  0
 24 60  1  0  0  0  0
 24 61  1  0  0  0  0
 25 31  1  0  0  0  0
 25 62  1  0  0  0  0
 26 34  1  0  0  0  0
 26 63  1  0  0  0  0
 28 35  1  0  0  0  0
 28 65  1  0  0  0  0
 28 66  1  0  0  0  0
 29 30  1  0  0  0  0
 29 32  1  0  0  0  0
 29 67  1  0  0  0  0
 29 68  1  0  0  0  0
 30 33  1  0  0  0  0
 30 69  1  0  0  0  0
 30 70  1  0  0  0  0
 31 36  2  3  0  0  0
 31 71  1  0  0  0  0
 32 37  1  0  0  0  0
 32 72  1  0  0  0  0
 32 73  1  0  0  0  0
 33 38  1  0  0  0  0
 33 74  1  0  0  0  0
 33 75  1  0  0  0  0
 35 42  1  0  0  0  0
 36 41  1  0  0  0  0
 36 79  1  0  0  0  0
 37 39  2  3  0  0  0
 37 80  1  0  0  0  0
 38 81  1  0  0  0  0
 38 82  1  0  0  0  0
 38 83  1  0  0  0  0
 39 40  1  0  0  0  0
 39 84  1  0  0  0  0
 40 43  1  0  0  0  0
 40 85  1  0  0  0  0
 40 86  1  0  0  0  0
 41 43  2  3  0  0  0
 41 87  1  0  0  0  0
 42 88  1  0  0  0  0
 42 89  1  0  0  0  0
 42 90  1  0  0  0  0
 43 91  1  0  0  0  0
M  END
> <PUBCHEM_COMPOUND_CID>
859

> <PUBCHEM_COMPOUND_CANONICALIZED>
1

> <PUBCHEM_CACTVS_COMPLEXITY>
980

> <PUBCHEM_CACTVS_HBOND_ACCEPTOR>
10

> <PUBCHEM_CACTVS_HBOND_DONOR>
6

> <PUBCHEM_CACTVS_ROTATABLE_BOND>
25

> <PUBCHEM_CACTVS_SUBSKEYS>
AAADcfB7PABAAAAAAAAAAAAAAAAAAAAAAAAAAAAAAAAAAAAAAAAAHgQQCAAACDzlwAaCCALAAgiIAKHSGAAAAAAgABAICIGIAAgKUBIggSAUQAAE1gCogAOc/ybAAAAAAAAAAAAAAAAAAAAAAAAAAAAAAA==

> <PUBCHEM_IUPAC_OPENEYE_NAME>
6-[3-(acetonylamino)-2-[(4-amino-4-carboxy-butanoyl)amino]-3-oxo-propyl]sulfanyl-5-hydroxy-icosa-7,9,11,14-tetraenoic acid

> <PUBCHEM_IUPAC_CAS_NAME>
6-[[2-[(4-amino-4-carboxy-1-oxobutyl)amino]-3-oxo-3-(2-oxopropylamino)propyl]thio]-5-hydroxyeicosa-7,9,11,14-tetraenoic acid

> <PUBCHEM_IUPAC_NAME_MARKUP>
6-[2-[(4-amino-4-carboxybutanoyl)amino]-3-oxo-3-(2-oxopropylamino)propyl]sulfanyl-5-hydroxyicosa-7,9,11,14-tetraenoic acid

> <PUBCHEM_IUPAC_NAME>
6-[2-[(4-amino-4-carboxybutanoyl)amino]-3-oxo-3-(2-oxopropylamino)propyl]sulfanyl-5-hydroxyicosa-7,9,11,14-tetraenoic acid

> <PUBCHEM_IUPAC_SYSTEMATIC_NAME>
6-[2-[(4-azanyl-5-oxidanyl-5-oxidanylidene-pentanoyl)amino]-3-oxidanylidene-3-(2-oxidanylidenepropylamino)propyl]sulfanyl-5-oxidanyl-icosa-7,9,11,14-tetraenoic acid

> <PUBCHEM_IUPAC_TRADITIONAL_NAME>
6-[[3-(acetonylamino)-2-[(4-amino-4-carboxy-butanoyl)amino]-3-keto-propyl]thio]-5-hydroxy-eicosa-7,9,11,14-tetraenoic acid

> <PUBCHEM_IUPAC_INCHI>
InChI=1S/C31H49N3O8S/c1-3-4-5-6-7-8-9-10-11-12-13-14-17-27(26(36)16-15-18-29(38)39)43-22-25(30(40)33-21-23(2)35)34-28(37)20-19-24(32)31(41)42/h7-8,10-14,17,24-27,36H,3-6,9,15-16,18-22,32H2,1-2H3,(H,33,40)(H,34,37)(H,38,39)(H,41,42)

> <PUBCHEM_IUPAC_INCHIKEY>
VGQBZHKBIHXHBO-UHFFFAOYSA-N

> <PUBCHEM_XLOGP3_AA>
0.8

> <PUBCHEM_EXACT_MASS>
623.32403670

> <PUBCHEM_MOLECULAR_FORMULA>
C31H49N3O8S

> <PUBCHEM_MOLECULAR_WEIGHT>
623.8

> <PUBCHEM_SMILES>
CCCCCC=CCC=CC=CC=CC(C(CCCC(=O)O)O)SCC(C(=O)NCC(=O)C)NC(=O)CCC(C(=O)O)N

> <PUBCHEM_CONNECTIVITY_SMILES>
CCCCCC=CCC=CC=CC=CC(C(CCCC(=O)O)O)SCC(C(=O)NCC(=O)C)NC(=O)CCC(C(=O)O)N

> <PUBCHEM_CACTVS_TPSA>
221

> <PUBCHEM_MONOISOTOPIC_WEIGHT>
623.32403670

> <PUBCHEM_TOTAL_CHARGE>
0

> <PUBCHEM_HEAVY_ATOM_COUNT>
43

> <PUBCHEM_ATOM_DEF_STEREO_COUNT>
0

> <PUBCHEM_ATOM_UDEF_STEREO_COUNT>
4

> <PUBCHEM_BOND_DEF_STEREO_COUNT>
0

> <PUBCHEM_BOND_UDEF_STEREO_COUNT>
4

> <PUBCHEM_ISOTOPIC_ATOM_COUNT>
0

> <PUBCHEM_COMPONENT_COUNT>
1

> <PUBCHEM_CACTVS_TAUTO_COUNT>
-1

> <PUBCHEM_COORDINATE_TYPE>
1
5
255

> <PUBCHEM_BONDANNOTATIONS>
26  12  3
14  20  3
17  18  3
13  2  3
20  25  1
31  36  1
37  39  1
41  43  1

$$$$
