213
  -OEChem-08152602302D

 57 58  0     1  0  0  0  0  0999 V2000
   10.3952    4.6546    0.0000 O   0  0  0  0  0  0  0  0  0  0  0  0
    9.0986    3.3609    0.0000 O   0  0  0  0  0  0  0  0  0  0  0  0
    6.0039    1.3736    0.0000 O   0  0  0  0  0  0  0  0  0  0  0  0
   13.3234   -4.0350    0.0000 O   0  0  0  0  0  0  0  0  0  0  0  0
   11.5924   -4.0955    0.0000 O   0  0  0  0  0  0  0  0  0  0  0  0
   10.8730    2.7061    0.0000 C   0  0  3  0  0  0  0  0  0  0  0  0
    9.6520    1.8404    0.0000 C   0  0  3  0  0  0  0  0  0  0  0  0
   12.2719    2.7149    0.0000 C   0  0  0  0  0  0  0  0  0  0  0  0
   11.1318    3.6720    0.0000 C   0  0  3  0  0  0  0  0  0  0  0  0
    8.8230    2.3996    0.0000 C   0  0  3  0  0  0  0  0  0  0  0  0
    9.6869    0.8410    0.0000 C   0  0  0  0  0  0  0  0  0  0  0  0
    7.8833    2.0576    0.0000 C   0  0  0  0  0  0  0  0  0  0  0  0
   10.5698    0.3716    0.0000 C   0  0  0  0  0  0  0  0  0  0  0  0
    7.1172    2.7004    0.0000 C   0  0  0  0  0  0  0  0  0  0  0  0
    6.1775    2.3584    0.0000 C   0  0  3  0  0  0  0  0  0  0  0  0
   10.6047   -0.6278    0.0000 C   0  0  0  0  0  0  0  0  0  0  0  0
    5.4115    3.0012    0.0000 C   0  0  0  0  0  0  0  0  0  0  0  0
   11.4877   -1.0973    0.0000 C   0  0  0  0  0  0  0  0  0  0  0  0
    4.4718    2.6591    0.0000 C   0  0  0  0  0  0  0  0  0  0  0  0
    3.7057    3.3019    0.0000 C   0  0  0  0  0  0  0  0  0  0  0  0
   11.5226   -2.0967    0.0000 C   0  0  0  0  0  0  0  0  0  0  0  0
    2.7660    2.9599    0.0000 C   0  0  0  0  0  0  0  0  0  0  0  0
   12.4055   -2.5662    0.0000 C   0  0  0  0  0  0  0  0  0  0  0  0
    2.0000    3.6027    0.0000 C   0  0  0  0  0  0  0  0  0  0  0  0
   12.4404   -3.5655    0.0000 C   0  0  0  0  0  0  0  0  0  0  0  0
   11.0630    2.1159    0.0000 H   0  0  0  0  0  0  0  0  0  0  0  0
    9.1097    1.5398    0.0000 H   0  0  0  0  0  0  0  0  0  0  0  0
   12.4522    2.1217    0.0000 H   0  0  0  0  0  0  0  0  0  0  0  0
   12.7893    3.0566    0.0000 H   0  0  0  0  0  0  0  0  0  0  0  0
   11.5821    4.0982    0.0000 H   0  0  0  0  0  0  0  0  0  0  0  0
    8.3695    2.8225    0.0000 H   0  0  0  0  0  0  0  0  0  0  0  0
    9.0729    0.9273    0.0000 H   0  0  0  0  0  0  0  0  0  0  0  0
    9.4953    0.2514    0.0000 H   0  0  0  0  0  0  0  0  0  0  0  0
    7.7756    1.4470    0.0000 H   0  0  0  0  0  0  0  0  0  0  0  0
   11.0956    0.7001    0.0000 H   0  0  0  0  0  0  0  0  0  0  0  0
    7.2249    3.3110    0.0000 H   0  0  0  0  0  0  0  0  0  0  0  0
    5.5949    2.1463    0.0000 H   0  0  0  0  0  0  0  0  0  0  0  0
   10.0789   -0.9564    0.0000 H   0  0  0  0  0  0  0  0  0  0  0  0
    5.8864    3.3997    0.0000 H   0  0  0  0  0  0  0  0  0  0  0  0
    5.1015    3.5381    0.0000 H   0  0  0  0  0  0  0  0  0  0  0  0
   12.1016   -1.1836    0.0000 H   0  0  0  0  0  0  0  0  0  0  0  0
   11.6793   -0.5076    0.0000 H   0  0  0  0  0  0  0  0  0  0  0  0
    3.9968    2.2606    0.0000 H   0  0  0  0  0  0  0  0  0  0  0  0
    4.7818    2.1222    0.0000 H   0  0  0  0  0  0  0  0  0  0  0  0
    4.1807    3.7005    0.0000 H   0  0  0  0  0  0  0  0  0  0  0  0
    3.3957    3.8389    0.0000 H   0  0  0  0  0  0  0  0  0  0  0  0
   10.9086   -2.0104    0.0000 H   0  0  0  0  0  0  0  0  0  0  0  0
   11.3310   -2.6863    0.0000 H   0  0  0  0  0  0  0  0  0  0  0  0
    5.4213    1.1615    0.0000 H   0  0  0  0  0  0  0  0  0  0  0  0
    2.2911    2.5614    0.0000 H   0  0  0  0  0  0  0  0  0  0  0  0
    3.0760    2.4230    0.0000 H   0  0  0  0  0  0  0  0  0  0  0  0
   13.0195   -2.6524    0.0000 H   0  0  0  0  0  0  0  0  0  0  0  0
   12.5971   -1.9765    0.0000 H   0  0  0  0  0  0  0  0  0  0  0  0
    2.3985    4.0776    0.0000 H   0  0  0  0  0  0  0  0  0  0  0  0
    1.5250    4.0012    0.0000 H   0  0  0  0  0  0  0  0  0  0  0  0
    1.6015    3.1277    0.0000 H   0  0  0  0  0  0  0  0  0  0  0  0
   13.3450   -4.6546    0.0000 H   0  0  0  0  0  0  0  0  0  0  0  0
  1  6  1  0  0  0  0
  1  9  1  0  0  0  0
  2  9  1  0  0  0  0
  2 10  1  0  0  0  0
  3 15  1  0  0  0  0
  3 49  1  0  0  0  0
  4 25  1  0  0  0  0
  4 57  1  0  0  0  0
  5 25  2  0  0  0  0
  6  7  1  0  0  0  0
  6  8  1  0  0  0  0
  6 26  1  0  0  0  0
  7 10  1  0  0  0  0
  7 11  1  0  0  0  0
  7 27  1  0  0  0  0
  8  9  1  0  0  0  0
  8 28  1  0  0  0  0
  8 29  1  0  0  0  0
  9 30  1  0  0  0  0
 10 12  1  0  0  0  0
 10 31  1  0  0  0  0
 11 13  1  0  0  0  0
 11 32  1  0  0  0  0
 11 33  1  0  0  0  0
 12 14  2  3  0  0  0
 12 34  1  0  0  0  0
 13 16  2  3  0  0  0
 13 35  1  0  0  0  0
 14 15  1  0  0  0  0
 14 36  1  0  0  0  0
 15 17  1  0  0  0  0
 15 37  1  0  0  0  0
 16 18  1  0  0  0  0
 16 38  1  0  0  0  0
 17 19  1  0  0  0  0
 17 39  1  0  0  0  0
 17 40  1  0  0  0  0
 18 21  1  0  0  0  0
 18 41  1  0  0  0  0
 18 42  1  0  0  0  0
 19 20  1  0  0  0  0
 19 43  1  0  0  0  0
 19 44  1  0  0  0  0
 20 22  1  0  0  0  0
 20 45  1  0  0  0  0
 20 46  1  0  0  0  0
 21 23  1  0  0  0  0
 21 47  1  0  0  0  0
 21 48  1  0  0  0  0
 22 24  1  0  0  0  0
 22 50  1  0  0  0  0
 22 51  1  0  0  0  0
 23 25  1  0  0  0  0
 23 52  1  0  0  0  0
 23 53  1  0  0  0  0
 24 54  1  0  0  0  0
 24 55  1  0  0  0  0
 24 56  1  0  0  0  0
M  END
> <PUBCHEM_COMPOUND_CID>
213

> <PUBCHEM_COMPOUND_CANONICALIZED>
1

> <PUBCHEM_CACTVS_COMPLEXITY>
459

> <PUBCHEM_CACTVS_HBOND_ACCEPTOR>
5

> <PUBCHEM_CACTVS_HBOND_DONOR>
2

> <PUBCHEM_CACTVS_ROTATABLE_BOND>
12

> <PUBCHEM_CACTVS_SUBSKEYS>
AAADcfB4OAAAAAAAAAAAAAAAAABIAAAAAAAkSAAAAAAAAAAAAAAAGgAACAAADRSwgAMCCAAABgCIACDSCAAAAAAgAAAICAEAAAgQFBIAIQAiUAAFgAAMMAOI4AQOAAAAAAAAAAAAAAAAAAAAAAAAAAAAAA==

> <PUBCHEM_IUPAC_OPENEYE_NAME>
7-[3-(3-hydroxyoct-1-enyl)-2,6-dioxabicyclo[3.1.1]heptan-4-yl]hept-5-enoic acid

> <PUBCHEM_IUPAC_CAS_NAME>
7-[3-(3-hydroxyoct-1-enyl)-2,6-dioxabicyclo[3.1.1]heptan-4-yl]-5-heptenoic acid

> <PUBCHEM_IUPAC_NAME_MARKUP>
7-[3-(3-hydroxyoct-1-enyl)-2,6-dioxabicyclo[3.1.1]heptan-4-yl]hept-5-enoic acid

> <PUBCHEM_IUPAC_NAME>
7-[3-(3-hydroxyoct-1-enyl)-2,6-dioxabicyclo[3.1.1]heptan-4-yl]hept-5-enoic acid

> <PUBCHEM_IUPAC_SYSTEMATIC_NAME>
7-[3-(3-oxidanyloct-1-enyl)-2,6-dioxabicyclo[3.1.1]heptan-4-yl]hept-5-enoic acid

> <PUBCHEM_IUPAC_TRADITIONAL_NAME>
7-[3-(3-hydroxyoct-1-enyl)-2,6-dioxabicyclo[3.1.1]heptan-4-yl]hept-5-enoic acid

> <PUBCHEM_IUPAC_INCHI>
InChI=1S/C20H32O5/c1-2-3-6-9-15(21)12-13-17-16(18-14-20(24-17)25-18)10-7-4-5-8-11-19(22)23/h4,7,12-13,15-18,20-21H,2-3,5-6,8-11,14H2,1H3,(H,22,23)

> <PUBCHEM_IUPAC_INCHIKEY>
DSNBHJFQCNUKMA-UHFFFAOYSA-N

> <PUBCHEM_XLOGP3_AA>
3.4

> <PUBCHEM_EXACT_MASS>
352.22497412

> <PUBCHEM_MOLECULAR_FORMULA>
C20H32O5

> <PUBCHEM_MOLECULAR_WEIGHT>
352.5

> <PUBCHEM_SMILES>
CCCCCC(C=CC1C(C2CC(O2)O1)CC=CCCCC(=O)O)O

> <PUBCHEM_CONNECTIVITY_SMILES>
CCCCCC(C=CC1C(C2CC(O2)O1)CC=CCCCC(=O)O)O

> <PUBCHEM_CACTVS_TPSA>
76

> <PUBCHEM_MONOISOTOPIC_WEIGHT>
352.22497412

> <PUBCHEM_TOTAL_CHARGE>
0

> <PUBCHEM_HEAVY_ATOM_COUNT>
25

> <PUBCHEM_ATOM_DEF_STEREO_COUNT>
0

> <PUBCHEM_ATOM_UDEF_STEREO_COUNT>
5

> <PUBCHEM_BOND_DEF_STEREO_COUNT>
0

> <PUBCHEM_BOND_UDEF_STEREO_COUNT>
2

> <PUBCHEM_ISOTOPIC_ATOM_COUNT>
0

> <PUBCHEM_COMPONENT_COUNT>
1

> <PUBCHEM_CACTVS_TAUTO_COUNT>
-1

> <PUBCHEM_COORDINATE_TYPE>
1
5
255

> <PUBCHEM_BONDANNOTATIONS>
10  12  3
12  14  1
13  16  1
15  3  3
6  8  3
7  11  3
9  8  3

$$$$
