1035
  -OEChem-08152603372D

 57 58  0     1  0  0  0  0  0999 V2000
   10.0783    1.0616    0.0000 O   0  0  0  0  0  0  0  0  0  0  0  0
    9.8195    0.0956    0.0000 O   0  0  0  0  0  0  0  0  0  0  0  0
    5.7800   -2.7065    0.0000 O   0  0  0  0  0  0  0  0  0  0  0  0
    2.7320    6.6274    0.0000 O   0  0  0  0  0  0  0  0  0  0  0  0
    2.0000    5.0576    0.0000 O   0  0  0  0  0  0  0  0  0  0  0  0
    6.7058    0.9521    0.0000 C   0  0  3  0  0  0  0  0  0  0  0  0
    7.0479    0.0124    0.0000 C   0  0  3  0  0  0  0  0  0  0  0  0
    8.6794    1.5704    0.0000 C   0  0  3  0  0  0  0  0  0  0  0  0
    8.4206    0.6045    0.0000 C   0  0  3  0  0  0  0  0  0  0  0  0
    7.9428    2.5530    0.0000 C   0  0  0  0  0  0  0  0  0  0  0  0
    5.7995    1.3748    0.0000 C   0  0  0  0  0  0  0  0  0  0  0  0
    6.6252   -0.8939    0.0000 C   0  0  0  0  0  0  0  0  0  0  0  0
    5.7124    2.3709    0.0000 C   0  0  0  0  0  0  0  0  0  0  0  0
    7.1988   -1.7130    0.0000 C   0  0  0  0  0  0  0  0  0  0  0  0
    6.7762   -2.6193    0.0000 C   0  0  3  0  0  0  0  0  0  0  0  0
    4.8061    2.7936    0.0000 C   0  0  0  0  0  0  0  0  0  0  0  0
    7.3498   -3.4385    0.0000 C   0  0  0  0  0  0  0  0  0  0  0  0
    4.7189    3.7898    0.0000 C   0  0  0  0  0  0  0  0  0  0  0  0
    6.9272   -4.3448    0.0000 C   0  0  0  0  0  0  0  0  0  0  0  0
    7.5008   -5.1639    0.0000 C   0  0  0  0  0  0  0  0  0  0  0  0
    3.8126    4.2124    0.0000 C   0  0  0  0  0  0  0  0  0  0  0  0
    7.0781   -6.0702    0.0000 C   0  0  0  0  0  0  0  0  0  0  0  0
    3.7255    5.2086    0.0000 C   0  0  0  0  0  0  0  0  0  0  0  0
    7.6517   -6.8894    0.0000 C   0  0  0  0  0  0  0  0  0  0  0  0
    2.8192    5.6312    0.0000 C   0  0  0  0  0  0  0  0  0  0  0  0
    6.7470    1.5708    0.0000 H   0  0  0  0  0  0  0  0  0  0  0  0
    7.4798   -0.4323    0.0000 H   0  0  0  0  0  0  0  0  0  0  0  0
    8.6654    0.9505    0.0000 H   0  0  0  0  0  0  0  0  0  0  0  0
    8.4387   -0.0153    0.0000 H   0  0  0  0  0  0  0  0  0  0  0  0
    8.2606    3.0854    0.0000 H   0  0  0  0  0  0  0  0  0  0  0  0
    7.3296    2.6450    0.0000 H   0  0  0  0  0  0  0  0  0  0  0  0
    5.1819    1.4288    0.0000 H   0  0  0  0  0  0  0  0  0  0  0  0
    5.6391    0.7759    0.0000 H   0  0  0  0  0  0  0  0  0  0  0  0
    6.0076   -0.9479    0.0000 H   0  0  0  0  0  0  0  0  0  0  0  0
    6.2203    2.7266    0.0000 H   0  0  0  0  0  0  0  0  0  0  0  0
    7.8165   -1.6590    0.0000 H   0  0  0  0  0  0  0  0  0  0  0  0
    6.4206   -2.1115    0.0000 H   0  0  0  0  0  0  0  0  0  0  0  0
    4.2982    2.4379    0.0000 H   0  0  0  0  0  0  0  0  0  0  0  0
    7.8577   -3.7941    0.0000 H   0  0  0  0  0  0  0  0  0  0  0  0
    7.7882   -3.0001    0.0000 H   0  0  0  0  0  0  0  0  0  0  0  0
    5.3366    3.7357    0.0000 H   0  0  0  0  0  0  0  0  0  0  0  0
    4.8794    4.3886    0.0000 H   0  0  0  0  0  0  0  0  0  0  0  0
    6.4193   -3.9892    0.0000 H   0  0  0  0  0  0  0  0  0  0  0  0
    6.4888   -4.7832    0.0000 H   0  0  0  0  0  0  0  0  0  0  0  0
    5.5180   -3.2684    0.0000 H   0  0  0  0  0  0  0  0  0  0  0  0
    8.0086   -5.5196    0.0000 H   0  0  0  0  0  0  0  0  0  0  0  0
    7.9392   -4.7255    0.0000 H   0  0  0  0  0  0  0  0  0  0  0  0
    3.1950    4.2664    0.0000 H   0  0  0  0  0  0  0  0  0  0  0  0
    3.6522    3.6135    0.0000 H   0  0  0  0  0  0  0  0  0  0  0  0
    6.5702   -5.7146    0.0000 H   0  0  0  0  0  0  0  0  0  0  0  0
    6.6397   -6.5087    0.0000 H   0  0  0  0  0  0  0  0  0  0  0  0
    4.3431    5.1545    0.0000 H   0  0  0  0  0  0  0  0  0  0  0  0
    3.8859    5.8074    0.0000 H   0  0  0  0  0  0  0  0  0  0  0  0
    7.1438   -7.2450    0.0000 H   0  0  0  0  0  0  0  0  0  0  0  0
    8.0073   -7.3973    0.0000 H   0  0  0  0  0  0  0  0  0  0  0  0
    8.1596   -6.5338    0.0000 H   0  0  0  0  0  0  0  0  0  0  0  0
    2.1701    6.8894    0.0000 H   0  0  0  0  0  0  0  0  0  0  0  0
  1  2  1  0  0  0  0
  1  8  1  0  0  0  0
  2  9  1  0  0  0  0
  3 15  1  0  0  0  0
  3 45  1  0  0  0  0
  4 25  1  0  0  0  0
  4 57  1  0  0  0  0
  5 25  2  0  0  0  0
  6  7  1  0  0  0  0
  6  8  1  0  0  0  0
  6 11  1  0  0  0  0
  6 26  1  0  0  0  0
  7  9  1  0  0  0  0
  7 12  1  0  0  0  0
  7 27  1  0  0  0  0
  8 10  1  0  0  0  0
  8 28  1  0  0  0  0
  9 10  1  0  0  0  0
  9 29  1  0  0  0  0
 10 30  1  0  0  0  0
 10 31  1  0  0  0  0
 11 13  1  0  0  0  0
 11 32  1  0  0  0  0
 11 33  1  0  0  0  0
 12 14  2  3  0  0  0
 12 34  1  0  0  0  0
 13 16  2  3  0  0  0
 13 35  1  0  0  0  0
 14 15  1  0  0  0  0
 14 36  1  0  0  0  0
 15 17  1  0  0  0  0
 15 37  1  0  0  0  0
 16 18  1  0  0  0  0
 16 38  1  0  0  0  0
 17 19  1  0  0  0  0
 17 39  1  0  0  0  0
 17 40  1  0  0  0  0
 18 21  1  0  0  0  0
 18 41  1  0  0  0  0
 18 42  1  0  0  0  0
 19 20  1  0  0  0  0
 19 43  1  0  0  0  0
 19 44  1  0  0  0  0
 20 22  1  0  0  0  0
 20 46  1  0  0  0  0
 20 47  1  0  0  0  0
 21 23  1  0  0  0  0
 21 48  1  0  0  0  0
 21 49  1  0  0  0  0
 22 24  1  0  0  0  0
 22 50  1  0  0  0  0
 22 51  1  0  0  0  0
 23 25  1  0  0  0  0
 23 52  1  0  0  0  0
 23 53  1  0  0  0  0
 24 54  1  0  0  0  0
 24 55  1  0  0  0  0
 24 56  1  0  0  0  0
M  END
> <PUBCHEM_COMPOUND_CID>
1035

> <PUBCHEM_COMPOUND_CANONICALIZED>
1

> <PUBCHEM_CACTVS_COMPLEXITY>
459

> <PUBCHEM_CACTVS_HBOND_ACCEPTOR>
5

> <PUBCHEM_CACTVS_HBOND_DONOR>
2

> <PUBCHEM_CACTVS_ROTATABLE_BOND>
12

> <PUBCHEM_CACTVS_SUBSKEYS>
AAADcfB4OAAAAAAAAAAAAAAAAAAAAaIAAAAkAAAAAAAAAAAAAAAAGgAADAAADRSggAICCAAAAgCIACDSCAAAAAAgAAAICAEAAAgAFBIAAQAAUAAFwAAIEAPIwKAOgAAAAAAAAAAAAAAAAAAAAIQADAAAAA==

> <PUBCHEM_IUPAC_OPENEYE_NAME>
7-[6-(3-hydroxyoct-1-enyl)-2,3-dioxabicyclo[2.2.1]heptan-5-yl]hept-5-enoic acid

> <PUBCHEM_IUPAC_CAS_NAME>
7-[6-(3-hydroxyoct-1-enyl)-2,3-dioxabicyclo[2.2.1]heptan-5-yl]-5-heptenoic acid

> <PUBCHEM_IUPAC_NAME_MARKUP>
7-[6-(3-hydroxyoct-1-enyl)-2,3-dioxabicyclo[2.2.1]heptan-5-yl]hept-5-enoic acid

> <PUBCHEM_IUPAC_NAME>
7-[6-(3-hydroxyoct-1-enyl)-2,3-dioxabicyclo[2.2.1]heptan-5-yl]hept-5-enoic acid

> <PUBCHEM_IUPAC_SYSTEMATIC_NAME>
7-[6-(3-oxidanyloct-1-enyl)-2,3-dioxabicyclo[2.2.1]heptan-5-yl]hept-5-enoic acid

> <PUBCHEM_IUPAC_TRADITIONAL_NAME>
7-[6-(3-hydroxyoct-1-enyl)-2,3-dioxabicyclo[2.2.1]heptan-5-yl]hept-5-enoic acid

> <PUBCHEM_IUPAC_INCHI>
InChI=1S/C20H32O5/c1-2-3-6-9-15(21)12-13-17-16(18-14-19(17)25-24-18)10-7-4-5-8-11-20(22)23/h4,7,12-13,15-19,21H,2-3,5-6,8-11,14H2,1H3,(H,22,23)

> <PUBCHEM_IUPAC_INCHIKEY>
YIBNHAJFJUQSRA-UHFFFAOYSA-N

> <PUBCHEM_XLOGP3_AA>
3.8

> <PUBCHEM_EXACT_MASS>
352.22497412

> <PUBCHEM_MOLECULAR_FORMULA>
C20H32O5

> <PUBCHEM_MOLECULAR_WEIGHT>
352.5

> <PUBCHEM_SMILES>
CCCCCC(C=CC1C2CC(C1CC=CCCCC(=O)O)OO2)O

> <PUBCHEM_CONNECTIVITY_SMILES>
CCCCCC(C=CC1C2CC(C1CC=CCCCC(=O)O)OO2)O

> <PUBCHEM_CACTVS_TPSA>
76

> <PUBCHEM_MONOISOTOPIC_WEIGHT>
352.22497412

> <PUBCHEM_TOTAL_CHARGE>
0

> <PUBCHEM_HEAVY_ATOM_COUNT>
25

> <PUBCHEM_ATOM_DEF_STEREO_COUNT>
0

> <PUBCHEM_ATOM_UDEF_STEREO_COUNT>
5

> <PUBCHEM_BOND_DEF_STEREO_COUNT>
0

> <PUBCHEM_BOND_UDEF_STEREO_COUNT>
2

> <PUBCHEM_ISOTOPIC_ATOM_COUNT>
0

> <PUBCHEM_COMPONENT_COUNT>
1

> <PUBCHEM_CACTVS_TAUTO_COUNT>
-1

> <PUBCHEM_COORDINATE_TYPE>
1
5
255

> <PUBCHEM_BONDANNOTATIONS>
12  14  1
13  16  1
15  3  3
6  11  3
7  12  3
8  10  3
9  10  3

$$$$
