1020
  -OEChem-08152603363D

 36 35  0     1  0  0  0  0  0999 V2000
   -2.6747   -0.9206   -0.8624 P   0  0  2  0  0  0  0  0  0  0  0  0
   -2.3628    1.4982    0.7826 P   0  0  0  0  0  0  0  0  0  0  0  0
   -1.1133   -1.3254   -0.7581 O   0  0  0  0  0  0  0  0  0  0  0  0
   -2.9357    0.0319    0.4176 O   0  0  0  0  0  0  0  0  0  0  0  0
   -3.4711   -2.2769   -0.4837 O   0  0  0  0  0  0  0  0  0  0  0  0
   -3.0775   -0.3121   -2.1744 O   0  0  0  0  0  0  0  0  0  0  0  0
   -3.0181    2.4474   -0.3497 O   0  0  0  0  0  0  0  0  0  0  0  0
   -3.1793    1.8879    2.1217 O   0  0  0  0  0  0  0  0  0  0  0  0
   -0.8691    1.5756    0.8986 O   0  0  0  0  0  0  0  0  0  0  0  0
    4.0793   -0.6420    0.7117 C   0  0  0  0  0  0  0  0  0  0  0  0
    3.2671   -1.9311    0.8724 C   0  0  0  0  0  0  0  0  0  0  0  0
    3.7514    0.0881   -0.5623 C   0  0  0  0  0  0  0  0  0  0  0  0
    1.7990   -1.6646    1.0494 C   0  0  0  0  0  0  0  0  0  0  0  0
    3.3556    1.3673   -0.7052 C   0  0  0  0  0  0  0  0  0  0  0  0
    0.8462   -2.1814    0.2599 C   0  0  0  0  0  0  0  0  0  0  0  0
   -0.6119   -1.9106    0.4356 C   0  0  0  0  0  0  0  0  0  0  0  0
    3.0892    1.9334   -2.0745 C   0  0  0  0  0  0  0  0  0  0  0  0
    3.1256    2.3349    0.4208 C   0  0  0  0  0  0  0  0  0  0  0  0
    5.1432   -0.9081    0.6762 H   0  0  0  0  0  0  0  0  0  0  0  0
    3.9534   -0.0201    1.6016 H   0  0  0  0  0  0  0  0  0  0  0  0
    3.6258   -2.4634    1.7618 H   0  0  0  0  0  0  0  0  0  0  0  0
    3.4462   -2.5952    0.0175 H   0  0  0  0  0  0  0  0  0  0  0  0
    3.8845   -0.5075   -1.4651 H   0  0  0  0  0  0  0  0  0  0  0  0
    1.5146   -1.0189    1.8768 H   0  0  0  0  0  0  0  0  0  0  0  0
    1.1287   -2.8344   -0.5621 H   0  0  0  0  0  0  0  0  0  0  0  0
   -1.1332   -2.8554    0.6185 H   0  0  0  0  0  0  0  0  0  0  0  0
   -0.8023   -1.2420    1.2803 H   0  0  0  0  0  0  0  0  0  0  0  0
    3.2640    1.2021   -2.8707 H   0  0  0  0  0  0  0  0  0  0  0  0
    2.0484    2.2647   -2.1516 H   0  0  0  0  0  0  0  0  0  0  0  0
    3.7426    2.7916   -2.2631 H   0  0  0  0  0  0  0  0  0  0  0  0
    2.0963    2.7081    0.3884 H   0  0  0  0  0  0  0  0  0  0  0  0
    3.2800    1.9081    1.4129 H   0  0  0  0  0  0  0  0  0  0  0  0
    3.8029    3.1900    0.3231 H   0  0  0  0  0  0  0  0  0  0  0  0
   -3.5809   -2.9696   -1.1696 H   0  0  0  0  0  0  0  0  0  0  0  0
   -2.7534    3.3911   -0.3896 H   0  0  0  0  0  0  0  0  0  0  0  0
   -2.9461    2.7139    2.5967 H   0  0  0  0  0  0  0  0  0  0  0  0
  1  3  1  0  0  0  0
  1  4  1  0  0  0  0
  1  5  1  0  0  0  0
  1  6  2  0  0  0  0
  2  4  1  0  0  0  0
  2  7  1  0  0  0  0
  2  8  1  0  0  0  0
  2  9  2  0  0  0  0
  3 16  1  0  0  0  0
  5 34  1  0  0  0  0
  7 35  1  0  0  0  0
  8 36  1  0  0  0  0
 10 11  1  0  0  0  0
 10 12  1  0  0  0  0
 10 19  1  0  0  0  0
 10 20  1  0  0  0  0
 11 13  1  0  0  0  0
 11 21  1  0  0  0  0
 11 22  1  0  0  0  0
 12 14  2  0  0  0  0
 12 23  1  0  0  0  0
 13 15  2  3  0  0  0
 13 24  1  0  0  0  0
 14 17  1  0  0  0  0
 14 18  1  0  0  0  0
 15 16  1  0  0  0  0
 15 25  1  0  0  0  0
 16 26  1  0  0  0  0
 16 27  1  0  0  0  0
 17 28  1  0  0  0  0
 17 29  1  0  0  0  0
 17 30  1  0  0  0  0
 18 31  1  0  0  0  0
 18 32  1  0  0  0  0
 18 33  1  0  0  0  0
M  END
> <PUBCHEM_COMPOUND_CID>
1020

> <PUBCHEM_CONFORMER_RMSD>
0.8

> <PUBCHEM_CONFORMER_DIVERSEORDER>
1
42
392
347
320
66
350
190
353
34
22
385
120
240
255
313
334
158
60
106
192
200
217
18
147
26
300
23
253
305
119
235
214
83
205
75
304
114
246
73
2
363
383
280
273
115
81
299
277
169
282
258
12
145
180
342
99
116
171
236
127
257
387
358
44
172
275
311
11
96
206
374
51
309
225
270
265
84
104
68
318
14
166
218
215
130
254
329
10
357
139
199
98
170
229
327
210
125
266
24
291
176
208
272
32
197
223
260
227
136
131
239
33
317
356
381
174
354
276
118
87
13
74
7
113
386
188
377
241
78
173
97
249
179
4
36
303
45
141
65
80
154
359
399
312
49
324
242
226
212
182
194
90
250
284
230
109
368
187
376
138
287
306
137
54
337
88
245
330
370
101
207
103
163
196
352
297
394
85
366
160
201
72
111
175
195
177
128
343
333
262
41
184
121
389
161
152
107
159
274
55
252
234
216
292
279
233
267
301
94
110
256
380
288
50
213
9
31
371
326
93
112
400
310
123
314
361
129
351
219
102
100
328
35
21
133
108
148
122
224
295
6
346
193
283
92
209
244
285
307
82
211
316
70
48
64
378
375
58
338
191
364
16
391
298
146
203
165
264
52
168
134
132
135
202
294
17
281
365
251
181
393
30
289
39
319
57
388
222
232
156
355
151
153
263
269
150
271
259
178
369
293
76
345
59
286
53
15
77
5
322
340
397
238
67
290
20
204
95
243
186
220
37
237
117
19
323
339
157
315
40
189
149
126
140
198
379
43
228
183
221
38
61
86
69
105
3
296
382
247
384
367
341
302
56
143
278
47
71
261
336
268
349
28
321
396
162
124
325
335
46
8
344
398
91
29
27
142
360
155
231
372
25
390
248
185
167
348
332
373
362
144
331
89
308
63
62
164
79
395

> <PUBCHEM_MMFF94_PARTIAL_CHARGES>
24
1 1.51
10 0.14
11 0.14
12 -0.29
13 -0.29
14 -0.28
15 -0.29
16 0.42
17 0.14
18 0.14
2 1.51
23 0.15
24 0.15
25 0.15
3 -0.55
34 0.5
35 0.5
36 0.5
4 -0.54
5 -0.77
6 -0.7
7 -0.77
8 -0.77
9 -0.7

> <PUBCHEM_EFFECTIVE_ROTOR_COUNT>
8

> <PUBCHEM_PHARMACOPHORE_FEATURES>
8
1 5 acceptor
1 6 acceptor
1 7 acceptor
1 8 acceptor
1 9 acceptor
3 14 17 18 hydrophobe
4 10 11 12 13 hydrophobe
4 2 7 8 9 anion

> <PUBCHEM_HEAVY_ATOM_COUNT>
18

> <PUBCHEM_ATOM_DEF_STEREO_COUNT>
0

> <PUBCHEM_ATOM_UDEF_STEREO_COUNT>
0

> <PUBCHEM_BOND_DEF_STEREO_COUNT>
0

> <PUBCHEM_BOND_UDEF_STEREO_COUNT>
1

> <PUBCHEM_ISOTOPIC_ATOM_COUNT>
0

> <PUBCHEM_COMPONENT_COUNT>
1

> <PUBCHEM_CACTVS_TAUTO_COUNT>
1

> <PUBCHEM_CONFORMER_ID>
000003FC00000001

> <PUBCHEM_MMFF94_ENERGY>
-36.4764

> <PUBCHEM_FEATURE_SELFOVERLAP>
40.644

> <PUBCHEM_SHAPE_FINGERPRINT>
10366900 7 15285623383752653786
10708813 3 18333168379789349108
12507557 5 18041264509572324002
12596599 1 18200317606782885950
13583140 156 17241611606971106843
14123250 116 18269005330620256512
14251764 3 16225765215976100290
18186145 218 18261111893974445558
18219364 16 17676203537841910430
20449540 30 18334005112549260663
21249577 28 18412260619167312736
21864079 5 18335991886931201906
22749437 52 18334566984407543356
23227448 37 18337389319197638525
23557571 272 17060333020355282810
474 4 18259984842778997178
539174 4 18261119525820003284

> <PUBCHEM_SHAPE_MULTIPOLES>
337.05
8.35
3.26
1.65
1.09
0.38
-0.34
1.99
-0.71
0.27
0.38
-0.74
0.75
-2.49

> <PUBCHEM_SHAPE_SELFOVERLAP>
612.74

> <PUBCHEM_SHAPE_VOLUME>
215.3

> <PUBCHEM_COORDINATE_TYPE>
2
5
10

$$$$
