315
  -OEChem-08152602372D

 62 63  0     1  0  0  0  0  0999 V2000
    6.8909   -1.4109    0.0000 P   0  0  3  0  0  0  0  0  0  0  0  0
    5.0298    1.0536    0.0000 O   0  0  0  0  0  0  0  0  0  0  0  0
    3.1330   -0.7064    0.0000 O   0  0  0  0  0  0  0  0  0  0  0  0
    2.4608    1.3627    0.0000 O   0  0  0  0  0  0  0  0  0  0  0  0
    6.3031   -0.6019    0.0000 O   0  0  0  0  0  0  0  0  0  0  0  0
    7.4787   -2.2199    0.0000 O   0  0  0  0  0  0  0  0  0  0  0  0
   10.4623   -1.9064    0.0000 O   0  0  0  0  0  0  0  0  0  0  0  0
   10.2366   -4.5424    0.0000 O   0  0  0  0  0  0  0  0  0  0  0  0
    8.6543   -3.8380    0.0000 O   0  0  0  0  0  0  0  0  0  0  0  0
   12.0446   -2.6108    0.0000 O   0  0  0  0  0  0  0  0  0  0  0  0
    7.6999   -0.8231    0.0000 O   0  0  0  0  0  0  0  0  0  0  0  0
    5.9529    2.6414    0.0000 O   0  0  0  0  0  0  0  0  0  0  0  0
    6.0819   -1.9987    0.0000 O   0  0  0  0  0  0  0  0  0  0  0  0
   13.6269   -3.3153    0.0000 O   0  0  0  0  0  0  0  0  0  0  0  0
   14.8025   -4.9334    0.0000 O   0  0  0  0  0  0  0  0  0  0  0  0
   13.4012   -5.9514    0.0000 O   0  0  0  0  0  0  0  0  0  0  0  0
    4.2208    2.6414    0.0000 N   0  0  0  0  0  0  0  0  0  0  0  0
    5.0868    4.1414    0.0000 N   0  0  0  0  0  0  0  0  0  0  0  0
    4.2208    5.6414    0.0000 N   0  0  0  0  0  0  0  0  0  0  0  0
    3.7208    0.1026    0.0000 C   0  0  3  0  0  0  0  0  0  0  0  0
    3.4118    1.0536    0.0000 C   0  0  3  0  0  0  0  0  0  0  0  0
    4.7208    0.1026    0.0000 C   0  0  3  0  0  0  0  0  0  0  0  0
    4.2208    1.6414    0.0000 C   0  0  3  0  0  0  0  0  0  0  0  0
    5.3086   -0.7064    0.0000 C   0  0  0  0  0  0  0  0  0  0  0  0
   10.0555   -2.8199    0.0000 C   0  0  3  0  0  0  0  0  0  0  0  0
   10.6433   -3.6289    0.0000 C   0  0  3  0  0  0  0  0  0  0  0  0
    3.3548    3.1414    0.0000 C   0  0  0  0  0  0  0  0  0  0  0  0
    9.0610   -2.9244    0.0000 C   0  0  3  0  0  0  0  0  0  0  0  0
    5.0868    3.1414    0.0000 C   0  0  0  0  0  0  0  0  0  0  0  0
   11.6378   -3.5244    0.0000 C   0  0  3  0  0  0  0  0  0  0  0  0
    8.4732   -2.1154    0.0000 C   0  0  0  0  0  0  0  0  0  0  0  0
    3.3548    4.1414    0.0000 C   0  0  0  0  0  0  0  0  0  0  0  0
   12.2256   -4.3334    0.0000 C   0  0  0  0  0  0  0  0  0  0  0  0
    4.2208    4.6414    0.0000 C   0  0  0  0  0  0  0  0  0  0  0  0
   13.2201   -4.2289    0.0000 C   0  0  0  0  0  0  0  0  0  0  0  0
   13.8079   -5.0379    0.0000 C   0  0  0  0  0  0  0  0  0  0  0  0
    3.1085    0.1996    0.0000 H   0  0  0  0  0  0  0  0  0  0  0  0
    3.3148    1.6660    0.0000 H   0  0  0  0  0  0  0  0  0  0  0  0
    5.3332    0.1996    0.0000 H   0  0  0  0  0  0  0  0  0  0  0  0
    3.6684    1.9229    0.0000 H   0  0  0  0  0  0  0  0  0  0  0  0
    4.7514   -0.9782    0.0000 H   0  0  0  0  0  0  0  0  0  0  0  0
    5.4795   -1.3024    0.0000 H   0  0  0  0  0  0  0  0  0  0  0  0
    3.3852   -1.2728    0.0000 H   0  0  0  0  0  0  0  0  0  0  0  0
    2.0000    0.9478    0.0000 H   0  0  0  0  0  0  0  0  0  0  0  0
    9.6911   -2.3183    0.0000 H   0  0  0  0  0  0  0  0  0  0  0  0
   10.0267   -3.6937    0.0000 H   0  0  0  0  0  0  0  0  0  0  0  0
    2.8179    2.8314    0.0000 H   0  0  0  0  0  0  0  0  0  0  0  0
    9.4254   -3.4260    0.0000 H   0  0  0  0  0  0  0  0  0  0  0  0
   12.2544   -3.4596    0.0000 H   0  0  0  0  0  0  0  0  0  0  0  0
    9.0305   -1.8436    0.0000 H   0  0  0  0  0  0  0  0  0  0  0  0
    8.3023   -1.5194    0.0000 H   0  0  0  0  0  0  0  0  0  0  0  0
   11.6684   -4.6052    0.0000 H   0  0  0  0  0  0  0  0  0  0  0  0
   12.3965   -4.9294    0.0000 H   0  0  0  0  0  0  0  0  0  0  0  0
    2.8179    4.4514    0.0000 H   0  0  0  0  0  0  0  0  0  0  0  0
   11.0789   -1.8415    0.0000 H   0  0  0  0  0  0  0  0  0  0  0  0
   10.6010   -5.0441    0.0000 H   0  0  0  0  0  0  0  0  0  0  0  0
    9.0187   -4.3396    0.0000 H   0  0  0  0  0  0  0  0  0  0  0  0
   12.6612   -2.5460    0.0000 H   0  0  0  0  0  0  0  0  0  0  0  0
    7.6351   -0.2065    0.0000 H   0  0  0  0  0  0  0  0  0  0  0  0
    3.6839    5.9514    0.0000 H   0  0  0  0  0  0  0  0  0  0  0  0
    4.7578    5.9514    0.0000 H   0  0  0  0  0  0  0  0  0  0  0  0
   15.1669   -5.4350    0.0000 H   0  0  0  0  0  0  0  0  0  0  0  0
  1  5  1  0  0  0  0
  1  6  1  0  0  0  0
  1 11  1  0  0  0  0
  1 13  2  0  0  0  0
  2 22  1  0  0  0  0
  2 23  1  0  0  0  0
  3 20  1  0  0  0  0
  3 43  1  0  0  0  0
  4 21  1  0  0  0  0
  4 44  1  0  0  0  0
  5 24  1  0  0  0  0
  6 31  1  0  0  0  0
  7 25  1  0  0  0  0
  7 55  1  0  0  0  0
  8 26  1  0  0  0  0
  8 56  1  0  0  0  0
  9 28  1  0  0  0  0
  9 57  1  0  0  0  0
 10 30  1  0  0  0  0
 10 58  1  0  0  0  0
 11 59  1  0  0  0  0
 12 29  2  0  0  0  0
 14 35  2  0  0  0  0
 15 36  1  0  0  0  0
 15 62  1  0  0  0  0
 16 36  2  0  0  0  0
 17 23  1  0  0  0  0
 17 27  1  0  0  0  0
 17 29  1  0  0  0  0
 18 29  1  0  0  0  0
 18 34  2  0  0  0  0
 19 34  1  0  0  0  0
 19 60  1  0  0  0  0
 19 61  1  0  0  0  0
 20 21  1  0  0  0  0
 20 22  1  0  0  0  0
 20 37  1  0  0  0  0
 21 23  1  0  0  0  0
 21 38  1  0  0  0  0
 22 24  1  0  0  0  0
 22 39  1  0  0  0  0
 23 40  1  0  0  0  0
 24 41  1  0  0  0  0
 24 42  1  0  0  0  0
 25 26  1  0  0  0  0
 25 28  1  0  0  0  0
 25 45  1  0  0  0  0
 26 30  1  0  0  0  0
 26 46  1  0  0  0  0
 27 32  2  0  0  0  0
 27 47  1  0  0  0  0
 28 31  1  0  0  0  0
 28 48  1  0  0  0  0
 30 33  1  0  0  0  0
 30 49  1  0  0  0  0
 31 50  1  0  0  0  0
 31 51  1  0  0  0  0
 32 34  1  0  0  0  0
 32 54  1  0  0  0  0
 33 35  1  0  0  0  0
 33 52  1  0  0  0  0
 33 53  1  0  0  0  0
 35 36  1  0  0  0  0
M  END
> <PUBCHEM_COMPOUND_CID>
315

> <PUBCHEM_COMPOUND_CANONICALIZED>
1

> <PUBCHEM_CACTVS_COMPLEXITY>
944

> <PUBCHEM_CACTVS_HBOND_ACCEPTOR>
15

> <PUBCHEM_CACTVS_HBOND_DONOR>
9

> <PUBCHEM_CACTVS_ROTATABLE_BOND>
13

> <PUBCHEM_CACTVS_SUBSKEYS>
AAADceB7PAIAAAAAAAAAAAAAAAAAASAAAAAgAAAAAAAAAAAAAAAAHgAQCCAACBThgAYBCANABxCoQKL2fIKAAAEAAgAIAAFYABCDEBYAgAAOQAAHNgITAAH6/KbAAAAAAAAAAAAAAAAAAAAAAAAAAAAAAA==

> <PUBCHEM_IUPAC_OPENEYE_NAME>
8-[[5-(4-amino-2-oxo-pyrimidin-1-yl)-3,4-dihydroxy-tetrahydrofuran-2-yl]methoxy-hydroxy-phosphoryl]oxy-4,5,6,7-tetrahydroxy-2-oxo-octanoic acid

> <PUBCHEM_IUPAC_CAS_NAME>
8-[[5-(4-amino-2-oxo-1-pyrimidinyl)-3,4-dihydroxy-2-oxolanyl]methoxy-hydroxyphosphoryl]oxy-4,5,6,7-tetrahydroxy-2-oxooctanoic acid

> <PUBCHEM_IUPAC_NAME_MARKUP>
8-[[5-(4-amino-2-oxopyrimidin-1-yl)-3,4-dihydroxyoxolan-2-yl]methoxy-hydroxyphosphoryl]oxy-4,5,6,7-tetrahydroxy-2-oxooctanoic acid

> <PUBCHEM_IUPAC_NAME>
8-[[5-(4-amino-2-oxopyrimidin-1-yl)-3,4-dihydroxyoxolan-2-yl]methoxy-hydroxyphosphoryl]oxy-4,5,6,7-tetrahydroxy-2-oxooctanoic acid

> <PUBCHEM_IUPAC_SYSTEMATIC_NAME>
8-[[5-(4-azanyl-2-oxidanylidene-pyrimidin-1-yl)-3,4-bis(oxidanyl)oxolan-2-yl]methoxy-oxidanyl-phosphoryl]oxy-4,5,6,7-tetrakis(oxidanyl)-2-oxidanylidene-octanoic acid

> <PUBCHEM_IUPAC_TRADITIONAL_NAME>
8-[[5-(4-amino-2-keto-pyrimidin-1-yl)-3,4-dihydroxy-tetrahydrofuran-2-yl]methoxy-hydroxy-phosphoryl]oxy-4,5,6,7-tetrahydroxy-2-keto-caprylic acid

> <PUBCHEM_IUPAC_INCHI>
InChI=1S/C17H26N3O15P/c18-10-1-2-20(17(30)19-10)15-14(27)13(26)9(35-15)5-34-36(31,32)33-4-8(23)12(25)11(24)6(21)3-7(22)16(28)29/h1-2,6,8-9,11-15,21,23-27H,3-5H2,(H,28,29)(H,31,32)(H2,18,19,30)

> <PUBCHEM_IUPAC_INCHIKEY>
KSWWYTQOPBWHCP-UHFFFAOYSA-N

> <PUBCHEM_XLOGP3>
-6

> <PUBCHEM_EXACT_MASS>
543.11015413

> <PUBCHEM_MOLECULAR_FORMULA>
C17H26N3O15P

> <PUBCHEM_MOLECULAR_WEIGHT>
543.4

> <PUBCHEM_SMILES>
C1=CN(C(=O)N=C1N)C2C(C(C(O2)COP(=O)(O)OCC(C(C(C(CC(=O)C(=O)O)O)O)O)O)O)O

> <PUBCHEM_CONNECTIVITY_SMILES>
C1=CN(C(=O)N=C1N)C2C(C(C(O2)COP(=O)(O)OCC(C(C(C(CC(=O)C(=O)O)O)O)O)O)O)O

> <PUBCHEM_CACTVS_TPSA>
299

> <PUBCHEM_MONOISOTOPIC_WEIGHT>
543.11015413

> <PUBCHEM_TOTAL_CHARGE>
0

> <PUBCHEM_HEAVY_ATOM_COUNT>
36

> <PUBCHEM_ATOM_DEF_STEREO_COUNT>
0

> <PUBCHEM_ATOM_UDEF_STEREO_COUNT>
8

> <PUBCHEM_BOND_DEF_STEREO_COUNT>
0

> <PUBCHEM_BOND_UDEF_STEREO_COUNT>
0

> <PUBCHEM_ISOTOPIC_ATOM_COUNT>
0

> <PUBCHEM_COMPONENT_COUNT>
1

> <PUBCHEM_CACTVS_TAUTO_COUNT>
-1

> <PUBCHEM_COORDINATE_TYPE>
1
5
255

> <PUBCHEM_BONDANNOTATIONS>
30  10  3
23  17  3
17  27  8
17  29  8
18  29  8
18  34  8
22  24  3
27  32  8
20  3  3
32  34  8
21  4  3
25  7  3
26  8  3
28  9  3

$$$$
