73
  -OEChem-08152602193D

 42 44  0     1  0  0  0  0  0999 V2000
   -2.0831    3.4326    1.0262 P   0  0  0  0  0  0  0  0  0  0  0  0
   -2.8912   -3.6336   -0.1150 P   0  0  0  0  0  0  0  0  0  0  0  0
   -0.3600   -0.3925   -1.5136 O   0  0  0  0  0  0  0  0  0  0  0  0
   -2.3334    2.0182    0.2899 O   0  0  0  0  0  0  0  0  0  0  0  0
   -0.9678    2.7242   -1.9464 O   0  0  0  0  0  0  0  0  0  0  0  0
   -2.3573   -2.2677   -0.8011 O   0  0  0  0  0  0  0  0  0  0  0  0
   -1.4971    3.0159    2.4747 O   0  0  0  0  0  0  0  0  0  0  0  0
   -3.5861    3.9262    1.3611 O   0  0  0  0  0  0  0  0  0  0  0  0
   -1.2504    4.4147    0.2553 O   0  0  0  0  0  0  0  0  0  0  0  0
   -4.1319   -3.1442    0.7996 O   0  0  0  0  0  0  0  0  0  0  0  0
   -1.7389   -3.9678    0.9692 O   0  0  0  0  0  0  0  0  0  0  0  0
   -3.2007   -4.7455   -1.0743 O   0  0  0  0  0  0  0  0  0  0  0  0
    1.8025    0.5368   -1.2050 N   0  0  0  0  0  0  0  0  0  0  0  0
    4.0263    0.6448   -1.0708 N   0  0  0  0  0  0  0  0  0  0  0  0
    1.3462   -0.9564    0.6562 N   0  0  0  0  0  0  0  0  0  0  0  0
    3.4060   -1.6316    1.7776 N   0  0  0  0  0  0  0  0  0  0  0  0
    5.5623   -0.8717    1.0706 N   0  0  0  0  0  0  0  0  0  0  0  0
   -1.2091    1.2319   -0.0424 C   0  0  2  0  0  0  0  0  0  0  0  0
   -0.2578    1.9455   -0.9846 C   0  0  1  0  0  0  0  0  0  0  0  0
   -1.5681   -0.0166   -0.8313 C   0  0  2  0  0  0  0  0  0  0  0  0
    0.4470    0.7900   -1.6967 C   0  0  2  0  0  0  0  0  0  0  0  0
   -2.0424   -1.1690    0.0364 C   0  0  0  0  0  0  0  0  0  0  0  0
    2.1576   -0.2526   -0.1475 C   0  0  0  0  0  0  0  0  0  0  0  0
    2.9599    1.0527   -1.7268 C   0  0  0  0  0  0  0  0  0  0  0  0
    3.5394   -0.1716   -0.0810 C   0  0  0  0  0  0  0  0  0  0  0  0
    4.1642   -0.8972    0.9283 C   0  0  0  0  0  0  0  0  0  0  0  0
    2.0639   -1.6158    1.5915 C   0  0  0  0  0  0  0  0  0  0  0  0
   -0.6777    0.9545    0.8758 H   0  0  0  0  0  0  0  0  0  0  0  0
    0.4327    2.6140   -0.4609 H   0  0  0  0  0  0  0  0  0  0  0  0
   -2.3249    0.1987   -1.5966 H   0  0  0  0  0  0  0  0  0  0  0  0
    0.5353    0.9587   -2.7765 H   0  0  0  0  0  0  0  0  0  0  0  0
   -2.9325   -0.8732    0.6005 H   0  0  0  0  0  0  0  0  0  0  0  0
   -1.2633   -1.4751    0.7390 H   0  0  0  0  0  0  0  0  0  0  0  0
   -0.3088    3.1231   -2.5398 H   0  0  0  0  0  0  0  0  0  0  0  0
    2.9631    1.7180   -2.5795 H   0  0  0  0  0  0  0  0  0  0  0  0
    1.4879   -2.2149    2.2888 H   0  0  0  0  0  0  0  0  0  0  0  0
   -1.2079    3.7224    3.0907 H   0  0  0  0  0  0  0  0  0  0  0  0
   -3.7185    4.8227    1.7364 H   0  0  0  0  0  0  0  0  0  0  0  0
    6.1303   -0.3244    0.4381 H   0  0  0  0  0  0  0  0  0  0  0  0
    5.9928   -1.4074    1.8121 H   0  0  0  0  0  0  0  0  0  0  0  0
   -4.6692   -3.8168    1.2696 H   0  0  0  0  0  0  0  0  0  0  0  0
   -1.7835   -4.8137    1.4637 H   0  0  0  0  0  0  0  0  0  0  0  0
  1  4  1  0  0  0  0
  1  7  1  0  0  0  0
  1  8  1  0  0  0  0
  1  9  2  0  0  0  0
  2  6  1  0  0  0  0
  2 10  1  0  0  0  0
  2 11  1  0  0  0  0
  2 12  2  0  0  0  0
  3 20  1  0  0  0  0
  3 21  1  0  0  0  0
  4 18  1  0  0  0  0
  5 19  1  0  0  0  0
  5 34  1  0  0  0  0
  6 22  1  0  0  0  0
  7 37  1  0  0  0  0
  8 38  1  0  0  0  0
 10 41  1  0  0  0  0
 11 42  1  0  0  0  0
 13 21  1  0  0  0  0
 13 23  1  0  0  0  0
 13 24  1  0  0  0  0
 14 24  2  0  0  0  0
 14 25  1  0  0  0  0
 15 23  2  0  0  0  0
 15 27  1  0  0  0  0
 16 26  1  0  0  0  0
 16 27  2  0  0  0  0
 17 26  1  0  0  0  0
 17 39  1  0  0  0  0
 17 40  1  0  0  0  0
 18 19  1  0  0  0  0
 18 20  1  0  0  0  0
 18 28  1  0  0  0  0
 19 21  1  0  0  0  0
 19 29  1  0  0  0  0
 20 22  1  0  0  0  0
 20 30  1  0  0  0  0
 21 31  1  0  0  0  0
 22 32  1  0  0  0  0
 22 33  1  0  0  0  0
 23 25  1  0  0  0  0
 24 35  1  0  0  0  0
 25 26  2  0  0  0  0
 27 36  1  0  0  0  0
M  END
> <PUBCHEM_COMPOUND_CID>
73

> <PUBCHEM_CONFORMER_RMSD>
1

> <PUBCHEM_CONFORMER_DIVERSEORDER>
74
160
150
236
88
200
518
555
15
201
153
505
520
211
528
204
524
521
159
155
354
314
70
9
384
175
330
338
209
529
509
410
86
121
289
92
229
90
273
104
404
513
45
489
42
64
26
232
82
18
278
196
87
57
36
85
173
531
135
548
364
233
466
299
372
177
199
55
296
38
65
73
10
262
206
436
347
383
226
44
261
46
171
163
16
428
109
107
80
25
336
101
301
191
501
39
414
2
450
203
126
69
242
48
13
438
174
282
31
103
541
387
6
263
212
7
78
21
67
277
120
99
360
23
1
258
480
363
8
58
5
149
475
353
344
124
20
304
426
253
41
66
19
416
71
247
225
265
269
318
182
194
108
50
138
94
553
30
29
525
441

> <PUBCHEM_MMFF94_PARTIAL_CHARGES>
36
1 1.51
10 -0.77
11 -0.77
12 -0.7
13 0.05
14 -0.57
15 -0.57
16 -0.62
17 -0.9
18 0.28
19 0.28
2 1.51
20 0.28
21 0.54
22 0.28
23 0.11
24 0.04
25 0.23
26 0.41
27 0.47
3 -0.56
34 0.4
35 0.15
36 0.15
37 0.5
38 0.5
39 0.4
4 -0.55
40 0.4
41 0.5
42 0.5
5 -0.68
6 -0.55
7 -0.77
8 -0.77
9 -0.7

> <PUBCHEM_EFFECTIVE_ROTOR_COUNT>
7

> <PUBCHEM_PHARMACOPHORE_FEATURES>
19
1 10 acceptor
1 11 acceptor
1 12 acceptor
1 17 cation
1 17 donor
1 3 acceptor
1 5 acceptor
1 5 donor
1 7 acceptor
1 8 acceptor
1 9 acceptor
3 13 14 24 cation
3 13 15 23 cation
3 15 16 27 cation
4 1 7 8 9 anion
4 2 10 11 12 anion
5 13 14 23 24 25 rings
5 3 18 19 20 21 rings
6 15 16 23 25 26 27 rings

> <PUBCHEM_HEAVY_ATOM_COUNT>
27

> <PUBCHEM_ATOM_DEF_STEREO_COUNT>
0

> <PUBCHEM_ATOM_UDEF_STEREO_COUNT>
4

> <PUBCHEM_BOND_DEF_STEREO_COUNT>
0

> <PUBCHEM_BOND_UDEF_STEREO_COUNT>
0

> <PUBCHEM_ISOTOPIC_ATOM_COUNT>
0

> <PUBCHEM_COMPONENT_COUNT>
1

> <PUBCHEM_CACTVS_TAUTO_COUNT>
3

> <PUBCHEM_CONFORMER_ID>
000000490000004A

> <PUBCHEM_MMFF94_ENERGY>
-4.5343

> <PUBCHEM_FEATURE_SELFOVERLAP>
97.106

> <PUBCHEM_SHAPE_FINGERPRINT>
10074138 170 18341607088667175121
11070050 100 17267817289972435881
11552529 35 18338782452006964498
11578080 2 17900232476697138917
12160290 23 18343016649530904773
12293681 160 17180275686028995156
12549972 3 17416977119164306454
12553582 1 18118118301947969383
12788726 201 18338248153611439587
12839892 36 18121511150640395929
13009979 54 18334294297050205194
13032168 30 18187930650586905760
14178342 30 18338232661849175190
14787075 74 17687753052877686436
15842332 3 18114477707700675404
20600515 1 18272377515929486309
20602899 9 17901917817437006285
21120745 212 18338526351427870308
345986 75 18262513818386413731
35225 105 18199208220856537483
392239 28 18121498214014095792
58807428 26 17907019478328021269
59554788 248 17681841696030439605
9981440 41 17058342818567748950

> <PUBCHEM_SHAPE_MULTIPOLES>
479.75
7.5
5.86
1.87
7.07
0.76
-0.17
4.32
-2.23
-10.63
-1.61
0.42
-0.85
-2.75

> <PUBCHEM_SHAPE_SELFOVERLAP>
997.979

> <PUBCHEM_SHAPE_VOLUME>
275.3

> <PUBCHEM_COORDINATE_TYPE>
2
5
10

$$$$
