142
  -OEChem-08152602253D

 31 33  0     1  0  0  0  0  0999 V2000
    1.6890   -0.2933   -1.2235 O   0  0  0  0  0  0  0  0  0  0  0  0
    3.2192    1.6927    0.8957 O   0  0  0  0  0  0  0  0  0  0  0  0
    1.7500   -1.5047    1.5401 O   0  0  0  0  0  0  0  0  0  0  0  0
   -0.0633    0.9977   -0.2898 N   0  0  0  0  0  0  0  0  0  0  0  0
   -2.0663    1.9579   -0.0865 N   0  0  0  0  0  0  0  0  0  0  0  0
   -0.7118   -1.3412   -0.1879 N   0  0  0  0  0  0  0  0  0  0  0  0
   -3.1261   -1.5820    0.0753 N   0  0  0  0  0  0  0  0  0  0  0  0
   -4.5983    0.3001    0.2061 N   0  0  0  0  0  0  0  0  0  0  0  0
    2.1338    0.7704    0.8855 C   0  0  1  0  0  0  0  0  0  0  0  0
    1.3879    0.8772   -0.4448 C   0  0  1  0  0  0  0  0  0  0  0  0
    2.6827   -0.6419    0.8936 C   0  0  2  0  0  0  0  0  0  0  0  0
    2.7432   -1.0268   -0.5783 C   0  0  2  0  0  0  0  0  0  0  0  0
    4.0632   -0.6607   -1.2456 C   0  0  0  0  0  0  0  0  0  0  0  0
   -0.9644   -0.0237   -0.1788 C   0  0  0  0  0  0  0  0  0  0  0  0
   -0.7741    2.1679   -0.2282 C   0  0  0  0  0  0  0  0  0  0  0  0
   -2.1992    0.5924   -0.0543 C   0  0  0  0  0  0  0  0  0  0  0  0
   -3.3069   -0.2393    0.0760 C   0  0  0  0  0  0  0  0  0  0  0  0
   -1.8585   -2.0427   -0.0547 C   0  0  0  0  0  0  0  0  0  0  0  0
    1.5039    0.9874    1.7551 H   0  0  0  0  0  0  0  0  0  0  0  0
    1.7074    1.7483   -1.0295 H   0  0  0  0  0  0  0  0  0  0  0  0
    3.6456   -0.7458    1.4021 H   0  0  0  0  0  0  0  0  0  0  0  0
    2.5465   -2.0939   -0.7296 H   0  0  0  0  0  0  0  0  0  0  0  0
    4.0369   -0.9369   -2.3054 H   0  0  0  0  0  0  0  0  0  0  0  0
    4.2532    0.4168   -1.2140 H   0  0  0  0  0  0  0  0  0  0  0  0
    4.9017   -1.1803   -0.7724 H   0  0  0  0  0  0  0  0  0  0  0  0
    2.8405    2.5872    0.8486 H   0  0  0  0  0  0  0  0  0  0  0  0
   -0.2981    3.1370   -0.2902 H   0  0  0  0  0  0  0  0  0  0  0  0
    0.9180   -1.4916    1.0409 H   0  0  0  0  0  0  0  0  0  0  0  0
   -1.7507   -3.1221   -0.0508 H   0  0  0  0  0  0  0  0  0  0  0  0
   -5.3873   -0.3251    0.2994 H   0  0  0  0  0  0  0  0  0  0  0  0
   -4.7359    1.3017    0.2071 H   0  0  0  0  0  0  0  0  0  0  0  0
  1 10  1  0  0  0  0
  1 12  1  0  0  0  0
  2  9  1  0  0  0  0
  2 26  1  0  0  0  0
  3 11  1  0  0  0  0
  3 28  1  0  0  0  0
  4 10  1  0  0  0  0
  4 14  1  0  0  0  0
  4 15  1  0  0  0  0
  5 15  2  0  0  0  0
  5 16  1  0  0  0  0
  6 14  2  0  0  0  0
  6 18  1  0  0  0  0
  7 17  1  0  0  0  0
  7 18  2  0  0  0  0
  8 17  1  0  0  0  0
  8 30  1  0  0  0  0
  8 31  1  0  0  0  0
  9 10  1  0  0  0  0
  9 11  1  0  0  0  0
  9 19  1  0  0  0  0
 10 20  1  0  0  0  0
 11 12  1  0  0  0  0
 11 21  1  0  0  0  0
 12 13  1  0  0  0  0
 12 22  1  0  0  0  0
 13 23  1  0  0  0  0
 13 24  1  0  0  0  0
 13 25  1  0  0  0  0
 14 16  1  0  0  0  0
 15 27  1  0  0  0  0
 16 17  2  0  0  0  0
 18 29  1  0  0  0  0
M  END
> <PUBCHEM_COMPOUND_CID>
142

> <PUBCHEM_CONFORMER_RMSD>
0.6

> <PUBCHEM_CONFORMER_DIVERSEORDER>
29
9
55
13
58
52
4
22
57
17
53
1
27
56
43
59
21
16
15
10
33
18
12
26
47
2
31
23
44
40
45
54
11
30
41
19
24
6
3
37
51
36
14
42
5
35
48
49
28
20
50
34
8
25
32
39
38
46
7

> <PUBCHEM_MMFF94_PARTIAL_CHARGES>
23
1 -0.56
10 0.54
11 0.28
12 0.28
14 0.11
15 0.04
16 0.23
17 0.41
18 0.47
2 -0.68
26 0.4
27 0.15
28 0.4
29 0.15
3 -0.68
30 0.4
31 0.4
4 0.05
5 -0.57
6 -0.57
7 -0.62
8 -0.9
9 0.28

> <PUBCHEM_EFFECTIVE_ROTOR_COUNT>
2

> <PUBCHEM_PHARMACOPHORE_FEATURES>
13
1 1 acceptor
1 2 acceptor
1 2 donor
1 3 acceptor
1 3 donor
1 8 cation
1 8 donor
3 4 5 15 cation
3 4 6 14 cation
3 6 7 18 cation
5 1 9 10 11 12 rings
5 4 5 14 15 16 rings
6 6 7 14 16 17 18 rings

> <PUBCHEM_HEAVY_ATOM_COUNT>
18

> <PUBCHEM_ATOM_DEF_STEREO_COUNT>
0

> <PUBCHEM_ATOM_UDEF_STEREO_COUNT>
4

> <PUBCHEM_BOND_DEF_STEREO_COUNT>
0

> <PUBCHEM_BOND_UDEF_STEREO_COUNT>
0

> <PUBCHEM_ISOTOPIC_ATOM_COUNT>
0

> <PUBCHEM_COMPONENT_COUNT>
1

> <PUBCHEM_CACTVS_TAUTO_COUNT>
3

> <PUBCHEM_CONFORMER_ID>
0000008E0000001D

> <PUBCHEM_MMFF94_ENERGY>
42.1782

> <PUBCHEM_FEATURE_SELFOVERLAP>
66.577

> <PUBCHEM_SHAPE_FINGERPRINT>
10618630 7 18335699468240657965
11132069 177 18412259558384204497
11578080 2 17387382749948359964
12236239 1 17603874373116607270
12382932 28 18267860756121478577
12553582 1 18333731334027031835
13140716 1 18410571829273385483
13221675 6 18335143076565446435
13296908 3 18339361967216417743
13538477 17 18114185241322392063
13581323 91 18410854322114815774
14223421 5 18341324595535522384
14252887 29 18269844283740882971
14289901 80 16773793736147234251
15219456 202 18131632309417849668
15375462 189 18040715857163916315
15536298 74 18342457079558287656
15775835 57 18189059694114403552
15848700 24 18342734131109008901
16752209 62 18335696084128273189
16945 1 18339071580076864933
17804303 29 18341900632253930870
18186145 218 18410570678406538965
19049666 15 17843687655791307718
19422 9 17896324610465997450
200 152 14634867552570270156
20442098 301 18342450478082965807
20510252 161 18272369724716971265
20645476 183 17531257166315106727
21197605 99 13001771114307706570
22445834 79 18042394751311119698
23175994 123 16845301484329948270
23388829 49 17480281801279768047
23463225 33 18334293158767482895
23526113 38 17485371080038493628
23557571 272 18198621227460291530
23559900 14 18413674617091078524
2748010 2 18411977005006770789
3286 77 16200144387530882303
34934 24 18339354292268121917
474 4 16951711257657123012
69090 78 18060413621335178935
7364860 26 18269560605636223732
77492 1 17531251617079820494
8030462 33 17967254169744947168
81228 2 18407762530015073105
9709674 26 18269835474699707183

> <PUBCHEM_SHAPE_MULTIPOLES>
327.92
6.67
2.03
1.03
1.16
0.25
-0.1
-0.99
0.19
0.56
-0.13
-1.09
-0.16
0.38

> <PUBCHEM_SHAPE_SELFOVERLAP>
716.562

> <PUBCHEM_SHAPE_VOLUME>
174.5

> <PUBCHEM_COORDINATE_TYPE>
2
5
10

$$$$
