228
  -OEChem-08152602313D

 41 43  0     1  0  0  0  0  0999 V2000
    5.6235   -0.8934    0.9754 S   0  0  0  0  0  0  0  0  0  0  0  0
    3.6562   -0.5723   -0.9019 P   0  0  1  0  0  0  0  0  0  0  0  0
   -0.3246    0.6223    0.3134 O   0  0  0  0  0  0  0  0  0  0  0  0
   -2.0453    3.7322    0.7403 O   0  0  0  0  0  0  0  0  0  0  0  0
   -0.2143    3.5534   -1.7533 O   0  0  0  0  0  0  0  0  0  0  0  0
    2.0974   -0.1386   -0.9025 O   0  0  0  0  0  0  0  0  0  0  0  0
    4.1289   -0.3342    0.6293 O   0  0  0  0  0  0  0  0  0  0  0  0
    3.5920   -2.1879   -0.9938 O   0  0  0  0  0  0  0  0  0  0  0  0
    4.5164    0.0684   -1.9529 O   0  0  0  0  0  0  0  0  0  0  0  0
    5.8606   -0.3545    2.4958 O   0  0  0  0  0  0  0  0  0  0  0  0
    6.5853   -0.2226    0.1214 O   0  0  0  0  0  0  0  0  0  0  0  0
    5.5693   -2.3422    1.0322 O   0  0  0  0  0  0  0  0  0  0  0  0
   -2.6057    0.5347    0.9384 N   0  0  0  0  0  0  0  0  0  0  0  0
   -4.5305   -0.2981    1.6974 N   0  0  0  0  0  0  0  0  0  0  0  0
   -2.2926   -0.8642   -1.0229 N   0  0  0  0  0  0  0  0  0  0  0  0
   -4.1192   -2.4634   -1.2731 N   0  0  0  0  0  0  0  0  0  0  0  0
   -5.9508   -2.5723    0.2634 N   0  0  0  0  0  0  0  0  0  0  0  0
   -1.5956    2.6164   -0.0084 C   0  0  1  0  0  0  0  0  0  0  0  0
   -0.1940    2.8228   -0.5418 C   0  0  1  0  0  0  0  0  0  0  0  0
   -1.4166    1.3815    0.8675 C   0  0  2  0  0  0  0  0  0  0  0  0
    0.2668    1.3889   -0.7498 C   0  0  1  0  0  0  0  0  0  0  0  0
    1.7760    1.2293   -0.7101 C   0  0  0  0  0  0  0  0  0  0  0  0
   -2.9582   -0.4591    0.0692 C   0  0  0  0  0  0  0  0  0  0  0  0
   -3.5815    0.5921    1.8989 C   0  0  0  0  0  0  0  0  0  0  0  0
   -4.1537   -0.9620    0.5570 C   0  0  0  0  0  0  0  0  0  0  0  0
   -4.7370   -2.0028   -0.1586 C   0  0  0  0  0  0  0  0  0  0  0  0
   -2.9526   -1.8741   -1.6307 C   0  0  0  0  0  0  0  0  0  0  0  0
   -2.3080    2.4512   -0.8262 H   0  0  0  0  0  0  0  0  0  0  0  0
    0.4265    3.3637    0.1818 H   0  0  0  0  0  0  0  0  0  0  0  0
   -1.1521    1.6429    1.8994 H   0  0  0  0  0  0  0  0  0  0  0  0
   -0.1127    0.9772   -1.6936 H   0  0  0  0  0  0  0  0  0  0  0  0
    2.1703    1.5389    0.2636 H   0  0  0  0  0  0  0  0  0  0  0  0
    2.2519    1.8251   -1.4955 H   0  0  0  0  0  0  0  0  0  0  0  0
   -2.9091    3.4995    1.1211 H   0  0  0  0  0  0  0  0  0  0  0  0
   -0.7568    3.0666   -2.3966 H   0  0  0  0  0  0  0  0  0  0  0  0
   -3.5478    1.3005    2.7154 H   0  0  0  0  0  0  0  0  0  0  0  0
   -2.4858   -2.2676   -2.5274 H   0  0  0  0  0  0  0  0  0  0  0  0
   -6.4136   -2.2308    1.0948 H   0  0  0  0  0  0  0  0  0  0  0  0
   -6.3545   -3.3278   -0.2734 H   0  0  0  0  0  0  0  0  0  0  0  0
    3.4199   -2.6060   -1.8643 H   0  0  0  0  0  0  0  0  0  0  0  0
    5.1123   -0.5081    3.1191 H   0  0  0  0  0  0  0  0  0  0  0  0
  1  7  1  0  0  0  0
  1 10  1  0  0  0  0
  1 11  2  0  0  0  0
  1 12  2  0  0  0  0
  2  6  1  0  0  0  0
  2  7  1  0  0  0  0
  2  8  1  0  0  0  0
  2  9  2  0  0  0  0
  3 20  1  0  0  0  0
  3 21  1  0  0  0  0
  4 18  1  0  0  0  0
  4 34  1  0  0  0  0
  5 19  1  0  0  0  0
  5 35  1  0  0  0  0
  6 22  1  0  0  0  0
  8 40  1  0  0  0  0
 10 41  1  0  0  0  0
 13 20  1  0  0  0  0
 13 23  1  0  0  0  0
 13 24  1  0  0  0  0
 14 24  2  0  0  0  0
 14 25  1  0  0  0  0
 15 23  2  0  0  0  0
 15 27  1  0  0  0  0
 16 26  1  0  0  0  0
 16 27  2  0  0  0  0
 17 26  1  0  0  0  0
 17 38  1  0  0  0  0
 17 39  1  0  0  0  0
 18 19  1  0  0  0  0
 18 20  1  0  0  0  0
 18 28  1  0  0  0  0
 19 21  1  0  0  0  0
 19 29  1  0  0  0  0
 20 30  1  0  0  0  0
 21 22  1  0  0  0  0
 21 31  1  0  0  0  0
 22 32  1  0  0  0  0
 22 33  1  0  0  0  0
 23 25  1  0  0  0  0
 24 36  1  0  0  0  0
 25 26  2  0  0  0  0
 27 37  1  0  0  0  0
M  END
> <PUBCHEM_COMPOUND_CID>
228

> <PUBCHEM_CONFORMER_RMSD>
1.2

> <PUBCHEM_CONFORMER_DIVERSEORDER>
13
26
141
9
195
165
261
58
228
166
145
476
45
17
147
69
345
517
150
686
434
217
338
157
274
75
15
132
16
544
6
111
489
482
99
323
552
596
51
124
315
29
283
368
326
244
128
212
309
372
134
401
5
22
675
255
310
352
294
135
602
211
568
54
307
42
225
658
210
127
272
178
11
38
531
21
39
79
677
20
355
502
122
72
231
66
370
3
159
62
125
101
175
2
693
688
4
233
41
7
306
619
395
491
232
43
399
383
186
40
591
554
264
167
680
64
543
605
155
18
98
448
206
251
198
12
1
593
473
634
385
197
52
566
384
685
639
570
608
279
588
106
74
24
484
184
8
575
19
112
156
249
551
635
10
511
649
530
676
265
418
95
481
245
50
194
130
334
526

> <PUBCHEM_MMFF94_PARTIAL_CHARGES>
35
1 1.67
10 -0.68
11 -0.65
12 -0.65
13 0.05
14 -0.57
15 -0.57
16 -0.62
17 -0.9
18 0.28
19 0.28
2 1.51
20 0.54
21 0.28
22 0.28
23 0.11
24 0.04
25 0.23
26 0.41
27 0.47
3 -0.56
34 0.4
35 0.4
36 0.15
37 0.15
38 0.4
39 0.4
4 -0.68
40 0.5
41 0.5
5 -0.68
6 -0.55
7 -0.45
8 -0.77
9 -0.7

> <PUBCHEM_EFFECTIVE_ROTOR_COUNT>
7

> <PUBCHEM_PHARMACOPHORE_FEATURES>
19
1 10 acceptor
1 11 acceptor
1 12 acceptor
1 17 cation
1 17 donor
1 3 acceptor
1 4 acceptor
1 4 donor
1 5 acceptor
1 5 donor
1 8 acceptor
1 9 acceptor
3 13 14 24 cation
3 13 15 23 cation
3 15 16 27 cation
4 1 10 11 12 anion
5 13 14 23 24 25 rings
5 3 18 19 20 21 rings
6 15 16 23 25 26 27 rings

> <PUBCHEM_HEAVY_ATOM_COUNT>
27

> <PUBCHEM_ATOM_DEF_STEREO_COUNT>
0

> <PUBCHEM_ATOM_UDEF_STEREO_COUNT>
4

> <PUBCHEM_BOND_DEF_STEREO_COUNT>
0

> <PUBCHEM_BOND_UDEF_STEREO_COUNT>
0

> <PUBCHEM_ISOTOPIC_ATOM_COUNT>
0

> <PUBCHEM_COMPONENT_COUNT>
1

> <PUBCHEM_CACTVS_TAUTO_COUNT>
3

> <PUBCHEM_CONFORMER_ID>
000000E40000000D

> <PUBCHEM_MMFF94_ENERGY>
35.9067

> <PUBCHEM_FEATURE_SELFOVERLAP>
97.107

> <PUBCHEM_SHAPE_FINGERPRINT>
11370993 144 16701468857530507558
11578080 2 18129934706884670913
11823591 26 10015593782945765107
12166972 35 17530962522894839814
12422481 6 18058747796594316967
12553582 1 18338248127540728502
12633257 1 17632863035589824560
13004483 165 18341330080335334133
13083527 12 18411134783785752108
13583140 156 17560507405545373472
13828863 39 15625364879154179936
14713325 29 8069728737414793873
14848178 5 17530960264084732178
15131766 46 14783260940252842141
15183329 4 12540964184666358122
17349148 13 17676491614541992866
1813 80 18335709372409226437
19032999 76 18410564111132511498
19377110 9 18409172121586878940
20621476 91 18340759403978009162
22393880 68 13984662581388665464
23559900 14 16485320320396898773
312425 54 17560254530239110898
339767 52 18413384337183666447
3459 110 17060041688417883552
3882209 13 16267109228530444143
4258327 124 12966831456057730361
5104073 3 17915196813214016427
56616090 89 18413389860284781721
5924683 9 18337104554139023904
7970288 3 18334013929774702475

> <PUBCHEM_SHAPE_MULTIPOLES>
479.75
14.1
3.48
1.77
16.36
2.44
0.3
-12.74
5.07
-2.95
-0.96
0.81
-0.06
-1.69

> <PUBCHEM_SHAPE_SELFOVERLAP>
1000.143

> <PUBCHEM_SHAPE_VOLUME>
274.6

> <PUBCHEM_COORDINATE_TYPE>
2
5
10

$$$$
