467
  -OEChem-08152602492D

117117  0     1  0  0  0  0  0999 V2000
   11.0000   -2.9151    0.0000 P   0  0  3  0  0  0  0  0  0  0  0  0
    9.5000   -3.7811    0.0000 P   0  0  0  0  0  0  0  0  0  0  0  0
   11.5000   -2.0490    0.0000 O   0  0  0  0  0  0  0  0  0  0  0  0
   10.5000   -3.7811    0.0000 O   0  0  0  0  0  0  0  0  0  0  0  0
   10.1340   -2.4151    0.0000 O   0  0  0  0  0  0  0  0  0  0  0  0
   11.8660   -3.4151    0.0000 O   0  0  0  0  0  0  0  0  0  0  0  0
    8.5000   -3.7811    0.0000 O   0  0  0  0  0  0  0  0  0  0  0  0
    9.5000   -4.7811    0.0000 O   0  0  0  0  0  0  0  0  0  0  0  0
    9.5000   -2.7811    0.0000 O   0  0  0  0  0  0  0  0  0  0  0  0
   13.8660   -0.6830    0.0000 C   0  0  3  0  0  0  0  0  0  0  0  0
   13.0000   -1.1830    0.0000 C   0  0  3  0  0  0  0  0  0  0  0  0
   13.0000   -0.1830    0.0000 C   0  0  3  0  0  0  0  0  0  0  0  0
   14.3660   -1.5490    0.0000 C   0  0  0  0  0  0  0  0  0  0  0  0
   14.3660    0.1830    0.0000 C   0  0  0  0  0  0  0  0  0  0  0  0
   12.5000   -2.0490    0.0000 C   0  0  0  0  0  0  0  0  0  0  0  0
   12.5000    0.6830    0.0000 C   0  0  0  0  0  0  0  0  0  0  0  0
   15.3660   -1.5490    0.0000 C   0  0  0  0  0  0  0  0  0  0  0  0
   11.5000    0.6830    0.0000 C   0  0  0  0  0  0  0  0  0  0  0  0
   15.8660   -2.4151    0.0000 C   0  0  0  0  0  0  0  0  0  0  0  0
   11.0000    1.5490    0.0000 C   0  0  0  0  0  0  0  0  0  0  0  0
   11.0000   -0.1830    0.0000 C   0  0  0  0  0  0  0  0  0  0  0  0
   16.8660   -2.4151    0.0000 C   0  0  0  0  0  0  0  0  0  0  0  0
   10.0000    1.5490    0.0000 C   0  0  0  0  0  0  0  0  0  0  0  0
   17.3660   -3.2811    0.0000 C   0  0  0  0  0  0  0  0  0  0  0  0
   17.3660   -1.5490    0.0000 C   0  0  0  0  0  0  0  0  0  0  0  0
    9.5000    2.4151    0.0000 C   0  0  0  0  0  0  0  0  0  0  0  0
   18.3660   -3.2811    0.0000 C   0  0  0  0  0  0  0  0  0  0  0  0
    8.5000    2.4151    0.0000 C   0  0  0  0  0  0  0  0  0  0  0  0
   18.8660   -4.1471    0.0000 C   0  0  0  0  0  0  0  0  0  0  0  0
    8.0000    3.2811    0.0000 C   0  0  0  0  0  0  0  0  0  0  0  0
    8.0000    1.5490    0.0000 C   0  0  0  0  0  0  0  0  0  0  0  0
   19.8660   -4.1471    0.0000 C   0  0  0  0  0  0  0  0  0  0  0  0
    7.0000    3.2811    0.0000 C   0  0  0  0  0  0  0  0  0  0  0  0
   20.3660   -5.0131    0.0000 C   0  0  0  0  0  0  0  0  0  0  0  0
   20.3660   -3.2811    0.0000 C   0  0  0  0  0  0  0  0  0  0  0  0
    6.5000    4.1471    0.0000 C   0  0  0  0  0  0  0  0  0  0  0  0
   21.3660   -5.0131    0.0000 C   0  0  0  0  0  0  0  0  0  0  0  0
    5.5000    4.1471    0.0000 C   0  0  0  0  0  0  0  0  0  0  0  0
   21.8660   -5.8792    0.0000 C   0  0  0  0  0  0  0  0  0  0  0  0
    5.0000    5.0131    0.0000 C   0  0  0  0  0  0  0  0  0  0  0  0
    5.0000    3.2811    0.0000 C   0  0  0  0  0  0  0  0  0  0  0  0
   22.8660   -5.8792    0.0000 C   0  0  0  0  0  0  0  0  0  0  0  0
    4.0000    5.0131    0.0000 C   0  0  0  0  0  0  0  0  0  0  0  0
   23.3660   -6.7452    0.0000 C   0  0  0  0  0  0  0  0  0  0  0  0
   23.3660   -5.0131    0.0000 C   0  0  0  0  0  0  0  0  0  0  0  0
    3.5000    5.8792    0.0000 C   0  0  0  0  0  0  0  0  0  0  0  0
    2.5000    5.8792    0.0000 C   0  0  0  0  0  0  0  0  0  0  0  0
    2.0000    6.7452    0.0000 C   0  0  0  0  0  0  0  0  0  0  0  0
    2.0000    5.0131    0.0000 C   0  0  0  0  0  0  0  0  0  0  0  0
   13.4384   -1.6214    0.0000 H   0  0  0  0  0  0  0  0  0  0  0  0
   13.4384    0.2554    0.0000 H   0  0  0  0  0  0  0  0  0  0  0  0
   13.7834   -1.7611    0.0000 H   0  0  0  0  0  0  0  0  0  0  0  0
   14.4737   -2.1596    0.0000 H   0  0  0  0  0  0  0  0  0  0  0  0
   14.9030   -0.1270    0.0000 H   0  0  0  0  0  0  0  0  0  0  0  0
   14.6760    0.7199    0.0000 H   0  0  0  0  0  0  0  0  0  0  0  0
   13.8291    0.4930    0.0000 H   0  0  0  0  0  0  0  0  0  0  0  0
   12.3923   -2.6596    0.0000 H   0  0  0  0  0  0  0  0  0  0  0  0
   13.0826   -2.2611    0.0000 H   0  0  0  0  0  0  0  0  0  0  0  0
   12.8100    1.2200    0.0000 H   0  0  0  0  0  0  0  0  0  0  0  0
   15.9486   -1.3370    0.0000 H   0  0  0  0  0  0  0  0  0  0  0  0
   15.2584   -0.9385    0.0000 H   0  0  0  0  0  0  0  0  0  0  0  0
   15.5560   -2.9520    0.0000 H   0  0  0  0  0  0  0  0  0  0  0  0
   11.5826    1.7611    0.0000 H   0  0  0  0  0  0  0  0  0  0  0  0
   10.8923    2.1596    0.0000 H   0  0  0  0  0  0  0  0  0  0  0  0
   10.4631    0.1270    0.0000 H   0  0  0  0  0  0  0  0  0  0  0  0
   10.6900   -0.7199    0.0000 H   0  0  0  0  0  0  0  0  0  0  0  0
   11.5369   -0.4930    0.0000 H   0  0  0  0  0  0  0  0  0  0  0  0
    9.4174    1.3370    0.0000 H   0  0  0  0  0  0  0  0  0  0  0  0
   10.1077    0.9385    0.0000 H   0  0  0  0  0  0  0  0  0  0  0  0
   16.7834   -3.4931    0.0000 H   0  0  0  0  0  0  0  0  0  0  0  0
   17.4737   -3.8917    0.0000 H   0  0  0  0  0  0  0  0  0  0  0  0
   17.9030   -1.8590    0.0000 H   0  0  0  0  0  0  0  0  0  0  0  0
   17.6760   -1.0121    0.0000 H   0  0  0  0  0  0  0  0  0  0  0  0
   16.8291   -1.2390    0.0000 H   0  0  0  0  0  0  0  0  0  0  0  0
   10.1340   -1.7951    0.0000 H   0  0  0  0  0  0  0  0  0  0  0  0
    9.8100    2.9520    0.0000 H   0  0  0  0  0  0  0  0  0  0  0  0
   18.9486   -3.0690    0.0000 H   0  0  0  0  0  0  0  0  0  0  0  0
   18.2584   -2.6705    0.0000 H   0  0  0  0  0  0  0  0  0  0  0  0
   18.5560   -4.6840    0.0000 H   0  0  0  0  0  0  0  0  0  0  0  0
    8.5826    3.4931    0.0000 H   0  0  0  0  0  0  0  0  0  0  0  0
    7.8923    3.8917    0.0000 H   0  0  0  0  0  0  0  0  0  0  0  0
    7.4631    1.8590    0.0000 H   0  0  0  0  0  0  0  0  0  0  0  0
    7.6900    1.0121    0.0000 H   0  0  0  0  0  0  0  0  0  0  0  0
    8.5369    1.2390    0.0000 H   0  0  0  0  0  0  0  0  0  0  0  0
    8.1900   -4.3180    0.0000 H   0  0  0  0  0  0  0  0  0  0  0  0
   10.0369   -5.0911    0.0000 H   0  0  0  0  0  0  0  0  0  0  0  0
    6.4174    3.0690    0.0000 H   0  0  0  0  0  0  0  0  0  0  0  0
    7.1077    2.6705    0.0000 H   0  0  0  0  0  0  0  0  0  0  0  0
   19.7834   -5.2252    0.0000 H   0  0  0  0  0  0  0  0  0  0  0  0
   20.4737   -5.6237    0.0000 H   0  0  0  0  0  0  0  0  0  0  0  0
   20.9030   -3.5911    0.0000 H   0  0  0  0  0  0  0  0  0  0  0  0
   20.6760   -2.7442    0.0000 H   0  0  0  0  0  0  0  0  0  0  0  0
   19.8291   -2.9711    0.0000 H   0  0  0  0  0  0  0  0  0  0  0  0
    6.8100    4.6840    0.0000 H   0  0  0  0  0  0  0  0  0  0  0  0
   21.9486   -4.8011    0.0000 H   0  0  0  0  0  0  0  0  0  0  0  0
   21.2584   -4.4026    0.0000 H   0  0  0  0  0  0  0  0  0  0  0  0
   21.5560   -6.4161    0.0000 H   0  0  0  0  0  0  0  0  0  0  0  0
    5.5826    5.2252    0.0000 H   0  0  0  0  0  0  0  0  0  0  0  0
    4.8923    5.6237    0.0000 H   0  0  0  0  0  0  0  0  0  0  0  0
    4.4631    3.5911    0.0000 H   0  0  0  0  0  0  0  0  0  0  0  0
    4.6900    2.7442    0.0000 H   0  0  0  0  0  0  0  0  0  0  0  0
    5.5369    2.9711    0.0000 H   0  0  0  0  0  0  0  0  0  0  0  0
    3.4174    4.8011    0.0000 H   0  0  0  0  0  0  0  0  0  0  0  0
    4.1077    4.4026    0.0000 H   0  0  0  0  0  0  0  0  0  0  0  0
   22.8291   -7.0552    0.0000 H   0  0  0  0  0  0  0  0  0  0  0  0
   23.6760   -7.2821    0.0000 H   0  0  0  0  0  0  0  0  0  0  0  0
   23.9030   -6.4352    0.0000 H   0  0  0  0  0  0  0  0  0  0  0  0
   23.9030   -5.3231    0.0000 H   0  0  0  0  0  0  0  0  0  0  0  0
   23.6760   -4.4762    0.0000 H   0  0  0  0  0  0  0  0  0  0  0  0
   22.8291   -4.7031    0.0000 H   0  0  0  0  0  0  0  0  0  0  0  0
    3.8100    6.4161    0.0000 H   0  0  0  0  0  0  0  0  0  0  0  0
    2.5369    7.0552    0.0000 H   0  0  0  0  0  0  0  0  0  0  0  0
    1.6900    7.2821    0.0000 H   0  0  0  0  0  0  0  0  0  0  0  0
    1.4631    6.4352    0.0000 H   0  0  0  0  0  0  0  0  0  0  0  0
    1.4631    5.3231    0.0000 H   0  0  0  0  0  0  0  0  0  0  0  0
    1.6900    4.4762    0.0000 H   0  0  0  0  0  0  0  0  0  0  0  0
    2.5369    4.7031    0.0000 H   0  0  0  0  0  0  0  0  0  0  0  0
  1  3  1  0  0  0  0
  1  4  1  0  0  0  0
  1  5  1  0  0  0  0
  1  6  2  0  0  0  0
  2  4  1  0  0  0  0
  2  7  1  0  0  0  0
  2  8  1  0  0  0  0
  2  9  2  0  0  0  0
  3 15  1  0  0  0  0
  5 75  1  0  0  0  0
  7 85  1  0  0  0  0
  8 86  1  0  0  0  0
 10 11  1  0  0  0  0
 10 12  1  0  0  0  0
 10 13  1  0  0  0  0
 10 14  1  0  0  0  0
 11 12  1  0  0  0  0
 11 15  1  0  0  0  0
 11 50  1  0  0  0  0
 12 16  1  0  0  0  0
 12 51  1  0  0  0  0
 13 17  1  0  0  0  0
 13 52  1  0  0  0  0
 13 53  1  0  0  0  0
 14 54  1  0  0  0  0
 14 55  1  0  0  0  0
 14 56  1  0  0  0  0
 15 57  1  0  0  0  0
 15 58  1  0  0  0  0
 16 18  2  3  0  0  0
 16 59  1  0  0  0  0
 17 19  1  0  0  0  0
 17 60  1  0  0  0  0
 17 61  1  0  0  0  0
 18 20  1  0  0  0  0
 18 21  1  0  0  0  0
 19 22  2  3  0  0  0
 19 62  1  0  0  0  0
 20 23  1  0  0  0  0
 20 63  1  0  0  0  0
 20 64  1  0  0  0  0
 21 65  1  0  0  0  0
 21 66  1  0  0  0  0
 21 67  1  0  0  0  0
 22 24  1  0  0  0  0
 22 25  1  0  0  0  0
 23 26  1  0  0  0  0
 23 68  1  0  0  0  0
 23 69  1  0  0  0  0
 24 27  1  0  0  0  0
 24 70  1  0  0  0  0
 24 71  1  0  0  0  0
 25 72  1  0  0  0  0
 25 73  1  0  0  0  0
 25 74  1  0  0  0  0
 26 28  2  3  0  0  0
 26 76  1  0  0  0  0
 27 29  1  0  0  0  0
 27 77  1  0  0  0  0
 27 78  1  0  0  0  0
 28 30  1  0  0  0  0
 28 31  1  0  0  0  0
 29 32  2  3  0  0  0
 29 79  1  0  0  0  0
 30 33  1  0  0  0  0
 30 80  1  0  0  0  0
 30 81  1  0  0  0  0
 31 82  1  0  0  0  0
 31 83  1  0  0  0  0
 31 84  1  0  0  0  0
 32 34  1  0  0  0  0
 32 35  1  0  0  0  0
 33 36  1  0  0  0  0
 33 87  1  0  0  0  0
 33 88  1  0  0  0  0
 34 37  1  0  0  0  0
 34 89  1  0  0  0  0
 34 90  1  0  0  0  0
 35 91  1  0  0  0  0
 35 92  1  0  0  0  0
 35 93  1  0  0  0  0
 36 38  2  3  0  0  0
 36 94  1  0  0  0  0
 37 39  1  0  0  0  0
 37 95  1  0  0  0  0
 37 96  1  0  0  0  0
 38 40  1  0  0  0  0
 38 41  1  0  0  0  0
 39 42  2  0  0  0  0
 39 97  1  0  0  0  0
 40 43  1  0  0  0  0
 40 98  1  0  0  0  0
 40 99  1  0  0  0  0
 41100  1  0  0  0  0
 41101  1  0  0  0  0
 41102  1  0  0  0  0
 42 44  1  0  0  0  0
 42 45  1  0  0  0  0
 43 46  1  0  0  0  0
 43103  1  0  0  0  0
 43104  1  0  0  0  0
 44105  1  0  0  0  0
 44106  1  0  0  0  0
 44107  1  0  0  0  0
 45108  1  0  0  0  0
 45109  1  0  0  0  0
 45110  1  0  0  0  0
 46 47  2  0  0  0  0
 46111  1  0  0  0  0
 47 48  1  0  0  0  0
 47 49  1  0  0  0  0
 48112  1  0  0  0  0
 48113  1  0  0  0  0
 48114  1  0  0  0  0
 49115  1  0  0  0  0
 49116  1  0  0  0  0
 49117  1  0  0  0  0
M  END
> <PUBCHEM_COMPOUND_CID>
467

> <PUBCHEM_COMPOUND_CANONICALIZED>
1

> <PUBCHEM_CACTVS_COMPLEXITY>
1350

> <PUBCHEM_CACTVS_HBOND_ACCEPTOR>
7

> <PUBCHEM_CACTVS_HBOND_DONOR>
3

> <PUBCHEM_CACTVS_ROTATABLE_BOND>
24

> <PUBCHEM_CACTVS_SUBSKEYS>
AAADcfB8OAMAAAAAAAAAAAAAGAAAAAAAAAAAAAAAAAAAAAAAAAAAGgAACCAADwCggAICAAAAARCAQiBCAIAAAAAgAAAACAAAAAgAAAIAAQAAAAAEgAAIAAOAwCAPgAAAAAAAAAAAAAAAAAAAAAAAAAAAAA==

> <PUBCHEM_IUPAC_OPENEYE_NAME>
[2-methyl-3-(2,6,10,14-tetramethylpentadeca-1,5,9,13-tetraenyl)-2-(4,8,12-trimethyltrideca-3,7,11-trienyl)cyclopropyl]methyl phosphono hydrogen phosphate

> <PUBCHEM_IUPAC_CAS_NAME>
[2-methyl-3-(2,6,10,14-tetramethylpentadeca-1,5,9,13-tetraenyl)-2-(4,8,12-trimethyltrideca-3,7,11-trienyl)cyclopropyl]methyl phosphono hydrogen phosphate

> <PUBCHEM_IUPAC_NAME_MARKUP>
[2-methyl-3-(2,6,10,14-tetramethylpentadeca-1,5,9,13-tetraenyl)-2-(4,8,12-trimethyltrideca-3,7,11-trienyl)cyclopropyl]methyl phosphono hydrogen phosphate

> <PUBCHEM_IUPAC_NAME>
[2-methyl-3-(2,6,10,14-tetramethylpentadeca-1,5,9,13-tetraenyl)-2-(4,8,12-trimethyltrideca-3,7,11-trienyl)cyclopropyl]methyl phosphono hydrogen phosphate

> <PUBCHEM_IUPAC_SYSTEMATIC_NAME>
[2-methyl-3-(2,6,10,14-tetramethylpentadeca-1,5,9,13-tetraenyl)-2-(4,8,12-trimethyltrideca-3,7,11-trienyl)cyclopropyl]methyl phosphono hydrogen phosphate

> <PUBCHEM_IUPAC_TRADITIONAL_NAME>
[2-methyl-3-(2,6,10,14-tetramethylpentadeca-1,5,9,13-tetraenyl)-2-(4,8,12-trimethyltrideca-3,7,11-trienyl)cyclopropyl]methyl phosphono hydrogen phosphate

> <PUBCHEM_IUPAC_INCHI>
InChI=1S/C40H68O7P2/c1-31(2)17-11-19-33(5)21-13-23-35(7)25-15-26-37(9)29-38-39(30-46-49(44,45)47-48(41,42)43)40(38,10)28-16-27-36(8)24-14-22-34(6)20-12-18-32(3)4/h17-18,21-22,25,27,29,38-39H,11-16,19-20,23-24,26,28,30H2,1-10H3,(H,44,45)(H2,41,42,43)

> <PUBCHEM_IUPAC_INCHIKEY>
RVCNKTPCHZNAAO-UHFFFAOYSA-N

> <PUBCHEM_XLOGP3_AA>
11.6

> <PUBCHEM_EXACT_MASS>
722.44402850

> <PUBCHEM_MOLECULAR_FORMULA>
C40H68O7P2

> <PUBCHEM_MOLECULAR_WEIGHT>
722.9

> <PUBCHEM_SMILES>
CC(=CCCC(=CCCC(=CCCC(=CC1C(C1(C)CCC=C(C)CCC=C(C)CCC=C(C)C)COP(=O)(O)OP(=O)(O)O)C)C)C)C

> <PUBCHEM_CONNECTIVITY_SMILES>
CC(=CCCC(=CCCC(=CCCC(=CC1C(C1(C)CCC=C(C)CCC=C(C)CCC=C(C)C)COP(=O)(O)OP(=O)(O)O)C)C)C)C

> <PUBCHEM_CACTVS_TPSA>
113

> <PUBCHEM_MONOISOTOPIC_WEIGHT>
722.44402850

> <PUBCHEM_TOTAL_CHARGE>
0

> <PUBCHEM_HEAVY_ATOM_COUNT>
49

> <PUBCHEM_ATOM_DEF_STEREO_COUNT>
0

> <PUBCHEM_ATOM_UDEF_STEREO_COUNT>
3

> <PUBCHEM_BOND_DEF_STEREO_COUNT>
0

> <PUBCHEM_BOND_UDEF_STEREO_COUNT>
5

> <PUBCHEM_ISOTOPIC_ATOM_COUNT>
0

> <PUBCHEM_COMPONENT_COUNT>
1

> <PUBCHEM_CACTVS_TAUTO_COUNT>
-1

> <PUBCHEM_COORDINATE_TYPE>
1
5
255

> <PUBCHEM_BONDANNOTATIONS>
10  14  3
11  15  3
12  16  3
16  18  1
19  22  1
26  28  1
29  32  1
36  38  1

$$$$
