377
  -OEChem-08152602422D

 74 74  0     1  0  0  0  0  0999 V2000
    6.0010   -2.5950    0.0000 P   0  0  3  0  0  0  0  0  0  0  0  0
    6.8671   -1.0950    0.0000 P   0  0  3  0  0  0  0  0  0  0  0  0
    4.2690   -3.5950    0.0000 O   0  0  0  0  0  0  0  0  0  0  0  0
    6.0010   -3.5950    0.0000 O   0  0  0  0  0  0  0  0  0  0  0  0
    4.2690   -6.5950    0.0000 O   0  0  0  0  0  0  0  0  0  0  0  0
    2.5369   -5.5950    0.0000 O   0  0  0  0  0  0  0  0  0  0  0  0
    2.5369   -2.5950    0.0000 O   0  0  0  0  0  0  0  0  0  0  0  0
    6.0010   -1.5950    0.0000 O   0  0  0  0  0  0  0  0  0  0  0  0
    7.7331   -0.5950    0.0000 O   0  0  0  0  0  0  0  0  0  0  0  0
    7.0010   -2.5950    0.0000 O   0  0  0  0  0  0  0  0  0  0  0  0
    6.8671   -4.0950    0.0000 O   0  0  0  0  0  0  0  0  0  0  0  0
    5.0010   -2.5950    0.0000 O   0  0  0  0  0  0  0  0  0  0  0  0
    6.3671   -0.2290    0.0000 O   0  0  0  0  0  0  0  0  0  0  0  0
    7.3671   -1.9610    0.0000 O   0  0  0  0  0  0  0  0  0  0  0  0
    6.0010   -5.5950    0.0000 N   0  0  0  0  0  0  0  0  0  0  0  0
    5.1350   -5.0950    0.0000 C   0  0  3  0  0  0  0  0  0  0  0  0
    4.2690   -5.5950    0.0000 C   0  0  3  0  0  0  0  0  0  0  0  0
    3.4030   -5.0950    0.0000 C   0  0  3  0  0  0  0  0  0  0  0  0
    3.4030   -4.0950    0.0000 C   0  0  3  0  0  0  0  0  0  0  0  0
    5.1350   -4.0950    0.0000 C   0  0  3  0  0  0  0  0  0  0  0  0
    2.5369   -3.5950    0.0000 C   0  0  0  0  0  0  0  0  0  0  0  0
    8.5991    1.9050    0.0000 C   0  0  3  0  0  0  0  0  0  0  0  0
    6.8671   -5.0950    0.0000 C   0  0  0  0  0  0  0  0  0  0  0  0
    9.4651    2.4050    0.0000 C   0  0  0  0  0  0  0  0  0  0  0  0
    8.5991    0.9050    0.0000 C   0  0  0  0  0  0  0  0  0  0  0  0
    9.4651    3.4050    0.0000 C   0  0  0  0  0  0  0  0  0  0  0  0
    7.7331    2.4050    0.0000 C   0  0  0  0  0  0  0  0  0  0  0  0
    7.7331    0.4050    0.0000 C   0  0  0  0  0  0  0  0  0  0  0  0
    7.7331   -5.5950    0.0000 C   0  0  0  0  0  0  0  0  0  0  0  0
   10.3312    3.9050    0.0000 C   0  0  0  0  0  0  0  0  0  0  0  0
   10.3312    4.9050    0.0000 C   0  0  0  0  0  0  0  0  0  0  0  0
   11.1972    5.4050    0.0000 C   0  0  0  0  0  0  0  0  0  0  0  0
   11.1972    6.4050    0.0000 C   0  0  0  0  0  0  0  0  0  0  0  0
   12.0632    4.9050    0.0000 C   0  0  0  0  0  0  0  0  0  0  0  0
   12.0632    6.9050    0.0000 C   0  0  0  0  0  0  0  0  0  0  0  0
    5.6720   -4.7850    0.0000 H   0  0  0  0  0  0  0  0  0  0  0  0
    4.8059   -5.9050    0.0000 H   0  0  0  0  0  0  0  0  0  0  0  0
    3.4030   -5.7150    0.0000 H   0  0  0  0  0  0  0  0  0  0  0  0
    3.4030   -3.4750    0.0000 H   0  0  0  0  0  0  0  0  0  0  0  0
    5.6720   -4.4050    0.0000 H   0  0  0  0  0  0  0  0  0  0  0  0
    1.9264   -3.4873    0.0000 H   0  0  0  0  0  0  0  0  0  0  0  0
    2.3249   -4.1776    0.0000 H   0  0  0  0  0  0  0  0  0  0  0  0
    6.0010   -6.2150    0.0000 H   0  0  0  0  0  0  0  0  0  0  0  0
    3.7320   -6.9050    0.0000 H   0  0  0  0  0  0  0  0  0  0  0  0
    2.0000   -5.2850    0.0000 H   0  0  0  0  0  0  0  0  0  0  0  0
    8.5991    2.5250    0.0000 H   0  0  0  0  0  0  0  0  0  0  0  0
    9.6772    1.8224    0.0000 H   0  0  0  0  0  0  0  0  0  0  0  0
   10.0757    2.5127    0.0000 H   0  0  0  0  0  0  0  0  0  0  0  0
    8.8112    0.3224    0.0000 H   0  0  0  0  0  0  0  0  0  0  0  0
    9.2097    1.0127    0.0000 H   0  0  0  0  0  0  0  0  0  0  0  0
    9.2531    3.9876    0.0000 H   0  0  0  0  0  0  0  0  0  0  0  0
    8.8546    3.2973    0.0000 H   0  0  0  0  0  0  0  0  0  0  0  0
    2.0000   -2.2850    0.0000 H   0  0  0  0  0  0  0  0  0  0  0  0
    8.0431    2.9419    0.0000 H   0  0  0  0  0  0  0  0  0  0  0  0
    7.1962    2.7150    0.0000 H   0  0  0  0  0  0  0  0  0  0  0  0
    7.4231    1.8681    0.0000 H   0  0  0  0  0  0  0  0  0  0  0  0
    7.5210    0.9876    0.0000 H   0  0  0  0  0  0  0  0  0  0  0  0
    7.1225    0.2973    0.0000 H   0  0  0  0  0  0  0  0  0  0  0  0
    7.4231   -6.1319    0.0000 H   0  0  0  0  0  0  0  0  0  0  0  0
    8.2700   -5.9050    0.0000 H   0  0  0  0  0  0  0  0  0  0  0  0
    8.0431   -5.0581    0.0000 H   0  0  0  0  0  0  0  0  0  0  0  0
   10.5432    3.3224    0.0000 H   0  0  0  0  0  0  0  0  0  0  0  0
   10.9417    4.0127    0.0000 H   0  0  0  0  0  0  0  0  0  0  0  0
    7.3110   -3.1319    0.0000 H   0  0  0  0  0  0  0  0  0  0  0  0
    9.7942    5.2150    0.0000 H   0  0  0  0  0  0  0  0  0  0  0  0
   10.9851    6.9876    0.0000 H   0  0  0  0  0  0  0  0  0  0  0  0
   10.5866    6.2973    0.0000 H   0  0  0  0  0  0  0  0  0  0  0  0
    5.7471   -0.2290    0.0000 H   0  0  0  0  0  0  0  0  0  0  0  0
   11.7532    4.3681    0.0000 H   0  0  0  0  0  0  0  0  0  0  0  0
   12.6002    4.5950    0.0000 H   0  0  0  0  0  0  0  0  0  0  0  0
   12.3732    5.4419    0.0000 H   0  0  0  0  0  0  0  0  0  0  0  0
   12.3732    6.3681    0.0000 H   0  0  0  0  0  0  0  0  0  0  0  0
   12.6002    7.2150    0.0000 H   0  0  0  0  0  0  0  0  0  0  0  0
   11.7532    7.4419    0.0000 H   0  0  0  0  0  0  0  0  0  0  0  0
  1  4  1  0  0  0  0
  1  8  1  0  0  0  0
  1 10  1  0  0  0  0
  1 12  2  0  0  0  0
  2  8  1  0  0  0  0
  2  9  1  0  0  0  0
  2 13  1  0  0  0  0
  2 14  2  0  0  0  0
  3 19  1  0  0  0  0
  3 20  1  0  0  0  0
  4 20  1  0  0  0  0
  5 17  1  0  0  0  0
  5 44  1  0  0  0  0
  6 18  1  0  0  0  0
  6 45  1  0  0  0  0
  7 21  1  0  0  0  0
  7 53  1  0  0  0  0
  9 28  1  0  0  0  0
 10 64  1  0  0  0  0
 11 23  2  0  0  0  0
 13 68  1  0  0  0  0
 15 16  1  0  0  0  0
 15 23  1  0  0  0  0
 15 43  1  0  0  0  0
 16 17  1  0  0  0  0
 16 20  1  0  0  0  0
 16 36  1  0  0  0  0
 17 18  1  0  0  0  0
 17 37  1  0  0  0  0
 18 19  1  0  0  0  0
 18 38  1  0  0  0  0
 19 21  1  0  0  0  0
 19 39  1  0  0  0  0
 20 40  1  0  0  0  0
 21 41  1  0  0  0  0
 21 42  1  0  0  0  0
 22 24  1  0  0  0  0
 22 25  1  0  0  0  0
 22 27  1  0  0  0  0
 22 46  1  0  0  0  0
 23 29  1  0  0  0  0
 24 26  1  0  0  0  0
 24 47  1  0  0  0  0
 24 48  1  0  0  0  0
 25 28  1  0  0  0  0
 25 49  1  0  0  0  0
 25 50  1  0  0  0  0
 26 30  1  0  0  0  0
 26 51  1  0  0  0  0
 26 52  1  0  0  0  0
 27 54  1  0  0  0  0
 27 55  1  0  0  0  0
 27 56  1  0  0  0  0
 28 57  1  0  0  0  0
 28 58  1  0  0  0  0
 29 59  1  0  0  0  0
 29 60  1  0  0  0  0
 29 61  1  0  0  0  0
 30 31  1  0  0  0  0
 30 62  1  0  0  0  0
 30 63  1  0  0  0  0
 31 32  2  3  0  0  0
 31 65  1  0  0  0  0
 32 33  1  0  0  0  0
 32 34  1  0  0  0  0
 33 35  1  0  0  0  0
 33 66  1  0  0  0  0
 33 67  1  0  0  0  0
 34 69  1  0  0  0  0
 34 70  1  0  0  0  0
 34 71  1  0  0  0  0
 35 72  1  0  0  0  0
 35 73  1  0  0  0  0
 35 74  1  0  0  0  0
M  END
> <PUBCHEM_COMPOUND_CID>
377

> <PUBCHEM_COMPOUND_CANONICALIZED>
1

> <PUBCHEM_CACTVS_COMPLEXITY>
794

> <PUBCHEM_CACTVS_HBOND_ACCEPTOR>
12

> <PUBCHEM_CACTVS_HBOND_DONOR>
6

> <PUBCHEM_CACTVS_ROTATABLE_BOND>
15

> <PUBCHEM_CACTVS_SUBSKEYS>
AAADcfB6PAMAAAAAAAAAAAAAAAAAAAAAAAAkAAAAAAAAAAAAAAAAHgAQCCAADTzxgAcCCALABxCIQiFSEIAAAAAgAAAACIAIAAgTEAIAgQAHQAAHlgCfAAPw8CcOAAAAAAAAAAAAAAAAAAAAAAAAAAAAAA==

> <PUBCHEM_IUPAC_OPENEYE_NAME>
[3-acetamido-4,5-dihydroxy-6-(hydroxymethyl)tetrahydropyran-2-yl] [3,8-dimethyldec-7-enoxy(hydroxy)phosphoryl] hydrogen phosphate

> <PUBCHEM_IUPAC_CAS_NAME>
[3-acetamido-4,5-dihydroxy-6-(hydroxymethyl)-2-oxanyl] [3,8-dimethyldec-7-enoxy(hydroxy)phosphoryl] hydrogen phosphate

> <PUBCHEM_IUPAC_NAME_MARKUP>
[3-acetamido-4,5-dihydroxy-6-(hydroxymethyl)oxan-2-yl] [3,8-dimethyldec-7-enoxy(hydroxy)phosphoryl] hydrogen phosphate

> <PUBCHEM_IUPAC_NAME>
[3-acetamido-4,5-dihydroxy-6-(hydroxymethyl)oxan-2-yl] [3,8-dimethyldec-7-enoxy(hydroxy)phosphoryl] hydrogen phosphate

> <PUBCHEM_IUPAC_SYSTEMATIC_NAME>
[3-acetamido-6-(hydroxymethyl)-4,5-bis(oxidanyl)oxan-2-yl] [3,8-dimethyldec-7-enoxy(oxidanyl)phosphoryl] hydrogen phosphate

> <PUBCHEM_IUPAC_TRADITIONAL_NAME>
(3-acetamido-4,5-dihydroxy-6-methylol-tetrahydropyran-2-yl) [3,8-dimethyldec-7-enoxy(hydroxy)phosphoryl] hydrogen phosphate

> <PUBCHEM_IUPAC_INCHI>
InChI=1S/C20H39NO12P2/c1-5-13(2)8-6-7-9-14(3)10-11-30-34(26,27)33-35(28,29)32-20-17(21-15(4)23)19(25)18(24)16(12-22)31-20/h8,14,16-20,22,24-25H,5-7,9-12H2,1-4H3,(H,21,23)(H,26,27)(H,28,29)

> <PUBCHEM_IUPAC_INCHIKEY>
GXWRCBMYVOWMBQ-UHFFFAOYSA-N

> <PUBCHEM_XLOGP3_AA>
0.4

> <PUBCHEM_EXACT_MASS>
547.19474967

> <PUBCHEM_MOLECULAR_FORMULA>
C20H39NO12P2

> <PUBCHEM_MOLECULAR_WEIGHT>
547.5

> <PUBCHEM_SMILES>
CCC(=CCCCC(C)CCOP(=O)(O)OP(=O)(O)OC1C(C(C(C(O1)CO)O)O)NC(=O)C)C

> <PUBCHEM_CONNECTIVITY_SMILES>
CCC(=CCCCC(C)CCOP(=O)(O)OP(=O)(O)OC1C(C(C(C(O1)CO)O)O)NC(=O)C)C

> <PUBCHEM_CACTVS_TPSA>
201

> <PUBCHEM_MONOISOTOPIC_WEIGHT>
547.19474967

> <PUBCHEM_TOTAL_CHARGE>
0

> <PUBCHEM_HEAVY_ATOM_COUNT>
35

> <PUBCHEM_ATOM_DEF_STEREO_COUNT>
0

> <PUBCHEM_ATOM_UDEF_STEREO_COUNT>
6

> <PUBCHEM_BOND_DEF_STEREO_COUNT>
0

> <PUBCHEM_BOND_UDEF_STEREO_COUNT>
1

> <PUBCHEM_ISOTOPIC_ATOM_COUNT>
0

> <PUBCHEM_COMPONENT_COUNT>
1

> <PUBCHEM_CACTVS_TAUTO_COUNT>
-1

> <PUBCHEM_COORDINATE_TYPE>
1
5
255

> <PUBCHEM_BONDANNOTATIONS>
16  15  3
19  21  3
22  27  3
31  32  1
20  4  3
17  5  3
18  6  3

$$$$
