183
  -OEChem-08152602272D

210211  0     1  0  0  0  0  0999 V2000
    9.4651  -14.7500    0.0000 P   0  0  3  0  0  0  0  0  0  0  0  0
   10.3312  -13.2500    0.0000 P   0  0  3  0  0  0  0  0  0  0  0  0
    6.0010  -17.7500    0.0000 O   0  0  0  0  0  0  0  0  0  0  0  0
    5.1350  -16.2500    0.0000 O   0  0  0  0  0  0  0  0  0  0  0  0
    7.7331  -15.7500    0.0000 O   0  0  0  0  0  0  0  0  0  0  0  0
    7.7331  -18.7500    0.0000 O   0  0  0  0  0  0  0  0  0  0  0  0
    9.4651  -15.7500    0.0000 O   0  0  0  0  0  0  0  0  0  0  0  0
    2.5369  -17.7500    0.0000 O   0  0  0  0  0  0  0  0  0  0  0  0
    2.5369  -15.7500    0.0000 O   0  0  0  0  0  0  0  0  0  0  0  0
    6.0010  -14.7500    0.0000 O   0  0  0  0  0  0  0  0  0  0  0  0
    3.4030  -14.2500    0.0000 O   0  0  0  0  0  0  0  0  0  0  0  0
    9.4651  -13.7500    0.0000 O   0  0  0  0  0  0  0  0  0  0  0  0
    2.5369  -18.7500    0.0000 O   0  0  0  0  0  0  0  0  0  0  0  0
   10.4651  -14.7500    0.0000 O   0  0  0  0  0  0  0  0  0  0  0  0
   10.3312  -16.2500    0.0000 O   0  0  0  0  0  0  0  0  0  0  0  0
    8.4651  -14.7500    0.0000 O   0  0  0  0  0  0  0  0  0  0  0  0
   11.1972  -12.7500    0.0000 O   0  0  0  0  0  0  0  0  0  0  0  0
    9.8312  -12.3840    0.0000 O   0  0  0  0  0  0  0  0  0  0  0  0
   10.8312  -14.1160    0.0000 O   0  0  0  0  0  0  0  0  0  0  0  0
    4.2690  -18.7500    0.0000 N   0  0  0  0  0  0  0  0  0  0  0  0
    9.4651  -17.7500    0.0000 N   0  0  0  0  0  0  0  0  0  0  0  0
    6.8671  -17.2500    0.0000 C   0  0  3  0  0  0  0  0  0  0  0  0
    7.7331  -17.7500    0.0000 C   0  0  3  0  0  0  0  0  0  0  0  0
    4.2690  -17.7500    0.0000 C   0  0  3  0  0  0  0  0  0  0  0  0
    5.1350  -17.2500    0.0000 C   0  0  3  0  0  0  0  0  0  0  0  0
    8.5991  -17.2500    0.0000 C   0  0  3  0  0  0  0  0  0  0  0  0
    6.8671  -16.2500    0.0000 C   0  0  3  0  0  0  0  0  0  0  0  0
    3.4030  -17.2500    0.0000 C   0  0  3  0  0  0  0  0  0  0  0  0
    3.4030  -16.2500    0.0000 C   0  0  3  0  0  0  0  0  0  0  0  0
    8.5991  -16.2500    0.0000 C   0  0  3  0  0  0  0  0  0  0  0  0
    4.2690  -15.7500    0.0000 C   0  0  3  0  0  0  0  0  0  0  0  0
    6.0010  -15.7500    0.0000 C   0  0  0  0  0  0  0  0  0  0  0  0
    4.2690  -14.7500    0.0000 C   0  0  0  0  0  0  0  0  0  0  0  0
    3.4030  -19.2500    0.0000 C   0  0  0  0  0  0  0  0  0  0  0  0
   10.3312  -17.2500    0.0000 C   0  0  0  0  0  0  0  0  0  0  0  0
    3.4030  -20.2500    0.0000 C   0  0  0  0  0  0  0  0  0  0  0  0
   11.1972  -17.7500    0.0000 C   0  0  0  0  0  0  0  0  0  0  0  0
   11.1972  -11.7500    0.0000 C   0  0  0  0  0  0  0  0  0  0  0  0
   12.0632  -11.2500    0.0000 C   0  0  0  0  0  0  0  0  0  0  0  0
   12.0632  -10.2500    0.0000 C   0  0  0  0  0  0  0  0  0  0  0  0
   12.9292   -9.7500    0.0000 C   0  0  0  0  0  0  0  0  0  0  0  0
   11.1972   -9.7500    0.0000 C   0  0  0  0  0  0  0  0  0  0  0  0
   12.9292   -8.7500    0.0000 C   0  0  0  0  0  0  0  0  0  0  0  0
   13.7953   -8.2500    0.0000 C   0  0  0  0  0  0  0  0  0  0  0  0
   13.7953   -7.2500    0.0000 C   0  0  0  0  0  0  0  0  0  0  0  0
   14.6613   -6.7500    0.0000 C   0  0  0  0  0  0  0  0  0  0  0  0
   12.9292   -6.7500    0.0000 C   0  0  0  0  0  0  0  0  0  0  0  0
   14.6613   -5.7500    0.0000 C   0  0  0  0  0  0  0  0  0  0  0  0
   15.5273   -5.2500    0.0000 C   0  0  0  0  0  0  0  0  0  0  0  0
   15.5273   -4.2500    0.0000 C   0  0  0  0  0  0  0  0  0  0  0  0
   16.3933   -3.7500    0.0000 C   0  0  0  0  0  0  0  0  0  0  0  0
   16.3933   -2.7500    0.0000 C   0  0  0  0  0  0  0  0  0  0  0  0
   14.6613   -3.7500    0.0000 C   0  0  0  0  0  0  0  0  0  0  0  0
   17.2594   -2.2500    0.0000 C   0  0  0  0  0  0  0  0  0  0  0  0
   18.1254   -0.7500    0.0000 C   0  0  0  0  0  0  0  0  0  0  0  0
   17.2594   -1.2500    0.0000 C   0  0  0  0  0  0  0  0  0  0  0  0
   18.1254    0.2500    0.0000 C   0  0  0  0  0  0  0  0  0  0  0  0
   19.8574    2.2500    0.0000 C   0  0  0  0  0  0  0  0  0  0  0  0
   21.5895    5.2500    0.0000 C   0  0  0  0  0  0  0  0  0  0  0  0
   19.8574    3.2500    0.0000 C   0  0  0  0  0  0  0  0  0  0  0  0
   21.5895    6.2500    0.0000 C   0  0  0  0  0  0  0  0  0  0  0  0
   23.3215    8.2500    0.0000 C   0  0  0  0  0  0  0  0  0  0  0  0
   18.9914    1.7500    0.0000 C   0  0  0  0  0  0  0  0  0  0  0  0
   20.7235    4.7500    0.0000 C   0  0  0  0  0  0  0  0  0  0  0  0
   23.3215    9.2500    0.0000 C   0  0  0  0  0  0  0  0  0  0  0  0
   22.4555    7.7500    0.0000 C   0  0  0  0  0  0  0  0  0  0  0  0
   18.9914    0.7500    0.0000 C   0  0  0  0  0  0  0  0  0  0  0  0
   25.0536   11.2500    0.0000 C   0  0  0  0  0  0  0  0  0  0  0  0
   20.7235    3.7500    0.0000 C   0  0  0  0  0  0  0  0  0  0  0  0
   24.1876   10.7500    0.0000 C   0  0  0  0  0  0  0  0  0  0  0  0
   22.4555    6.7500    0.0000 C   0  0  0  0  0  0  0  0  0  0  0  0
   25.0536   12.2500    0.0000 C   0  0  0  0  0  0  0  0  0  0  0  0
   24.1876    9.7500    0.0000 C   0  0  0  0  0  0  0  0  0  0  0  0
   16.3933   -0.7500    0.0000 C   0  0  0  0  0  0  0  0  0  0  0  0
   26.7856   14.2500    0.0000 C   0  0  0  0  0  0  0  0  0  0  0  0
   25.9196   13.7500    0.0000 C   0  0  0  0  0  0  0  0  0  0  0  0
   25.9196   12.7500    0.0000 C   0  0  0  0  0  0  0  0  0  0  0  0
   26.7856   15.2500    0.0000 C   0  0  0  0  0  0  0  0  0  0  0  0
   18.1254    2.2500    0.0000 C   0  0  0  0  0  0  0  0  0  0  0  0
   19.8574    5.2500    0.0000 C   0  0  0  0  0  0  0  0  0  0  0  0
   21.5895    8.2500    0.0000 C   0  0  0  0  0  0  0  0  0  0  0  0
   23.3215   11.2500    0.0000 C   0  0  0  0  0  0  0  0  0  0  0  0
   27.6517   15.7500    0.0000 C   0  0  0  0  0  0  0  0  0  0  0  0
   27.6517   16.7500    0.0000 C   0  0  0  0  0  0  0  0  0  0  0  0
   25.0536   14.2500    0.0000 C   0  0  0  0  0  0  0  0  0  0  0  0
   28.5177   17.2500    0.0000 C   0  0  0  0  0  0  0  0  0  0  0  0
   28.5177   18.2500    0.0000 C   0  0  0  0  0  0  0  0  0  0  0  0
   26.7856   17.2500    0.0000 C   0  0  0  0  0  0  0  0  0  0  0  0
   29.3837   18.7500    0.0000 C   0  0  0  0  0  0  0  0  0  0  0  0
   29.3837   19.7500    0.0000 C   0  0  0  0  0  0  0  0  0  0  0  0
   30.2497   20.2500    0.0000 C   0  0  0  0  0  0  0  0  0  0  0  0
   28.5177   20.2500    0.0000 C   0  0  0  0  0  0  0  0  0  0  0  0
    6.3301  -16.9400    0.0000 H   0  0  0  0  0  0  0  0  0  0  0  0
    8.2700  -18.0600    0.0000 H   0  0  0  0  0  0  0  0  0  0  0  0
    3.7320  -18.0600    0.0000 H   0  0  0  0  0  0  0  0  0  0  0  0
    5.1350  -17.8700    0.0000 H   0  0  0  0  0  0  0  0  0  0  0  0
    9.1360  -16.9400    0.0000 H   0  0  0  0  0  0  0  0  0  0  0  0
    6.8671  -15.6300    0.0000 H   0  0  0  0  0  0  0  0  0  0  0  0
    3.4030  -17.8700    0.0000 H   0  0  0  0  0  0  0  0  0  0  0  0
    3.4030  -15.6300    0.0000 H   0  0  0  0  0  0  0  0  0  0  0  0
    8.5991  -15.6300    0.0000 H   0  0  0  0  0  0  0  0  0  0  0  0
    4.8059  -15.4400    0.0000 H   0  0  0  0  0  0  0  0  0  0  0  0
    5.3905  -15.6423    0.0000 H   0  0  0  0  0  0  0  0  0  0  0  0
    5.7890  -16.3326    0.0000 H   0  0  0  0  0  0  0  0  0  0  0  0
    4.8059  -19.0600    0.0000 H   0  0  0  0  0  0  0  0  0  0  0  0
    9.4651  -18.3700    0.0000 H   0  0  0  0  0  0  0  0  0  0  0  0
    4.8796  -14.8577    0.0000 H   0  0  0  0  0  0  0  0  0  0  0  0
    4.4810  -14.1674    0.0000 H   0  0  0  0  0  0  0  0  0  0  0  0
    7.1962  -19.0600    0.0000 H   0  0  0  0  0  0  0  0  0  0  0  0
    2.0000  -17.4400    0.0000 H   0  0  0  0  0  0  0  0  0  0  0  0
    2.0000  -16.0600    0.0000 H   0  0  0  0  0  0  0  0  0  0  0  0
    6.5380  -14.4400    0.0000 H   0  0  0  0  0  0  0  0  0  0  0  0
    3.4030  -13.6300    0.0000 H   0  0  0  0  0  0  0  0  0  0  0  0
    2.7830  -20.2500    0.0000 H   0  0  0  0  0  0  0  0  0  0  0  0
    3.4030  -20.8700    0.0000 H   0  0  0  0  0  0  0  0  0  0  0  0
    4.0230  -20.2500    0.0000 H   0  0  0  0  0  0  0  0  0  0  0  0
   10.8872  -18.2869    0.0000 H   0  0  0  0  0  0  0  0  0  0  0  0
   11.7341  -18.0600    0.0000 H   0  0  0  0  0  0  0  0  0  0  0  0
   11.5072  -17.2131    0.0000 H   0  0  0  0  0  0  0  0  0  0  0  0
   10.7751  -15.2869    0.0000 H   0  0  0  0  0  0  0  0  0  0  0  0
    9.2112  -12.3840    0.0000 H   0  0  0  0  0  0  0  0  0  0  0  0
   10.9851  -11.1674    0.0000 H   0  0  0  0  0  0  0  0  0  0  0  0
   10.5866  -11.8577    0.0000 H   0  0  0  0  0  0  0  0  0  0  0  0
   12.6002  -11.5600    0.0000 H   0  0  0  0  0  0  0  0  0  0  0  0
   13.1413  -10.3326    0.0000 H   0  0  0  0  0  0  0  0  0  0  0  0
   13.5398   -9.6423    0.0000 H   0  0  0  0  0  0  0  0  0  0  0  0
   11.5072   -9.2131    0.0000 H   0  0  0  0  0  0  0  0  0  0  0  0
   10.6603   -9.4400    0.0000 H   0  0  0  0  0  0  0  0  0  0  0  0
   10.8872  -10.2869    0.0000 H   0  0  0  0  0  0  0  0  0  0  0  0
   12.7172   -8.1674    0.0000 H   0  0  0  0  0  0  0  0  0  0  0  0
   12.3187   -8.8577    0.0000 H   0  0  0  0  0  0  0  0  0  0  0  0
   14.3322   -8.5600    0.0000 H   0  0  0  0  0  0  0  0  0  0  0  0
   14.8733   -7.3326    0.0000 H   0  0  0  0  0  0  0  0  0  0  0  0
   15.2719   -6.6423    0.0000 H   0  0  0  0  0  0  0  0  0  0  0  0
   13.2392   -6.2131    0.0000 H   0  0  0  0  0  0  0  0  0  0  0  0
   12.3923   -6.4400    0.0000 H   0  0  0  0  0  0  0  0  0  0  0  0
   12.6192   -7.2869    0.0000 H   0  0  0  0  0  0  0  0  0  0  0  0
   14.4492   -5.1674    0.0000 H   0  0  0  0  0  0  0  0  0  0  0  0
   14.0507   -5.8577    0.0000 H   0  0  0  0  0  0  0  0  0  0  0  0
   16.0643   -5.5600    0.0000 H   0  0  0  0  0  0  0  0  0  0  0  0
   16.6054   -4.3326    0.0000 H   0  0  0  0  0  0  0  0  0  0  0  0
   17.0039   -3.6423    0.0000 H   0  0  0  0  0  0  0  0  0  0  0  0
   16.1813   -2.1674    0.0000 H   0  0  0  0  0  0  0  0  0  0  0  0
   15.7828   -2.8577    0.0000 H   0  0  0  0  0  0  0  0  0  0  0  0
   14.9713   -3.2131    0.0000 H   0  0  0  0  0  0  0  0  0  0  0  0
   14.1244   -3.4400    0.0000 H   0  0  0  0  0  0  0  0  0  0  0  0
   14.3513   -4.2869    0.0000 H   0  0  0  0  0  0  0  0  0  0  0  0
   18.3374   -1.3326    0.0000 H   0  0  0  0  0  0  0  0  0  0  0  0
   18.7360   -0.6423    0.0000 H   0  0  0  0  0  0  0  0  0  0  0  0
   17.7963   -2.5600    0.0000 H   0  0  0  0  0  0  0  0  0  0  0  0
   17.9133    0.8326    0.0000 H   0  0  0  0  0  0  0  0  0  0  0  0
   17.5148    0.1423    0.0000 H   0  0  0  0  0  0  0  0  0  0  0  0
   20.0695    1.6674    0.0000 H   0  0  0  0  0  0  0  0  0  0  0  0
   20.4680    2.3577    0.0000 H   0  0  0  0  0  0  0  0  0  0  0  0
   21.8015    4.6674    0.0000 H   0  0  0  0  0  0  0  0  0  0  0  0
   22.2001    5.3577    0.0000 H   0  0  0  0  0  0  0  0  0  0  0  0
   19.6454    3.8326    0.0000 H   0  0  0  0  0  0  0  0  0  0  0  0
   19.2469    3.1423    0.0000 H   0  0  0  0  0  0  0  0  0  0  0  0
   21.3774    6.8326    0.0000 H   0  0  0  0  0  0  0  0  0  0  0  0
   20.9789    6.1423    0.0000 H   0  0  0  0  0  0  0  0  0  0  0  0
   23.5336    7.6674    0.0000 H   0  0  0  0  0  0  0  0  0  0  0  0
   23.9321    8.3577    0.0000 H   0  0  0  0  0  0  0  0  0  0  0  0
   23.1095    9.8326    0.0000 H   0  0  0  0  0  0  0  0  0  0  0  0
   22.7110    9.1423    0.0000 H   0  0  0  0  0  0  0  0  0  0  0  0
   19.5284    0.4400    0.0000 H   0  0  0  0  0  0  0  0  0  0  0  0
   25.2656   10.6674    0.0000 H   0  0  0  0  0  0  0  0  0  0  0  0
   25.6642   11.3577    0.0000 H   0  0  0  0  0  0  0  0  0  0  0  0
   21.2604    3.4400    0.0000 H   0  0  0  0  0  0  0  0  0  0  0  0
   22.9925    6.4400    0.0000 H   0  0  0  0  0  0  0  0  0  0  0  0
   24.8415   12.8326    0.0000 H   0  0  0  0  0  0  0  0  0  0  0  0
   24.4430   12.1423    0.0000 H   0  0  0  0  0  0  0  0  0  0  0  0
   24.7245    9.4400    0.0000 H   0  0  0  0  0  0  0  0  0  0  0  0
   26.9977   13.6674    0.0000 H   0  0  0  0  0  0  0  0  0  0  0  0
   27.3962   14.3577    0.0000 H   0  0  0  0  0  0  0  0  0  0  0  0
   16.7033   -0.2131    0.0000 H   0  0  0  0  0  0  0  0  0  0  0  0
   15.8564   -0.4400    0.0000 H   0  0  0  0  0  0  0  0  0  0  0  0
   16.0833   -1.2869    0.0000 H   0  0  0  0  0  0  0  0  0  0  0  0
   26.4566   12.4400    0.0000 H   0  0  0  0  0  0  0  0  0  0  0  0
   26.5736   15.8326    0.0000 H   0  0  0  0  0  0  0  0  0  0  0  0
   26.1751   15.1423    0.0000 H   0  0  0  0  0  0  0  0  0  0  0  0
   18.4354    2.7869    0.0000 H   0  0  0  0  0  0  0  0  0  0  0  0
   17.5885    2.5600    0.0000 H   0  0  0  0  0  0  0  0  0  0  0  0
   17.8154    1.7131    0.0000 H   0  0  0  0  0  0  0  0  0  0  0  0
   20.1674    5.7869    0.0000 H   0  0  0  0  0  0  0  0  0  0  0  0
   19.3205    5.5600    0.0000 H   0  0  0  0  0  0  0  0  0  0  0  0
   19.5474    4.7131    0.0000 H   0  0  0  0  0  0  0  0  0  0  0  0
   21.8995    8.7869    0.0000 H   0  0  0  0  0  0  0  0  0  0  0  0
   21.0526    8.5600    0.0000 H   0  0  0  0  0  0  0  0  0  0  0  0
   21.2795    7.7131    0.0000 H   0  0  0  0  0  0  0  0  0  0  0  0
   23.6315   11.7869    0.0000 H   0  0  0  0  0  0  0  0  0  0  0  0
   22.7846   11.5600    0.0000 H   0  0  0  0  0  0  0  0  0  0  0  0
   23.0115   10.7131    0.0000 H   0  0  0  0  0  0  0  0  0  0  0  0
   28.1886   15.4400    0.0000 H   0  0  0  0  0  0  0  0  0  0  0  0
   25.3636   14.7869    0.0000 H   0  0  0  0  0  0  0  0  0  0  0  0
   24.5167   14.5600    0.0000 H   0  0  0  0  0  0  0  0  0  0  0  0
   24.7436   13.7131    0.0000 H   0  0  0  0  0  0  0  0  0  0  0  0
   28.7298   16.6674    0.0000 H   0  0  0  0  0  0  0  0  0  0  0  0
   29.1283   17.3577    0.0000 H   0  0  0  0  0  0  0  0  0  0  0  0
   28.3056   18.8326    0.0000 H   0  0  0  0  0  0  0  0  0  0  0  0
   27.9071   18.1423    0.0000 H   0  0  0  0  0  0  0  0  0  0  0  0
   27.0956   17.7869    0.0000 H   0  0  0  0  0  0  0  0  0  0  0  0
   26.2487   17.5600    0.0000 H   0  0  0  0  0  0  0  0  0  0  0  0
   26.4756   16.7131    0.0000 H   0  0  0  0  0  0  0  0  0  0  0  0
   29.9207   18.4400    0.0000 H   0  0  0  0  0  0  0  0  0  0  0  0
   30.5597   19.7131    0.0000 H   0  0  0  0  0  0  0  0  0  0  0  0
   30.7867   20.5600    0.0000 H   0  0  0  0  0  0  0  0  0  0  0  0
   29.9397   20.7869    0.0000 H   0  0  0  0  0  0  0  0  0  0  0  0
   28.8277   20.7869    0.0000 H   0  0  0  0  0  0  0  0  0  0  0  0
   27.9808   20.5600    0.0000 H   0  0  0  0  0  0  0  0  0  0  0  0
   28.2077   19.7131    0.0000 H   0  0  0  0  0  0  0  0  0  0  0  0
  1  7  1  0  0  0  0
  1 12  1  0  0  0  0
  1 14  1  0  0  0  0
  1 16  2  0  0  0  0
  2 12  1  0  0  0  0
  2 17  1  0  0  0  0
  2 18  1  0  0  0  0
  2 19  2  0  0  0  0
  3 22  1  0  0  0  0
  3 25  1  0  0  0  0
  4 25  1  0  0  0  0
  4 31  1  0  0  0  0
  5 27  1  0  0  0  0
  5 30  1  0  0  0  0
  6 23  1  0  0  0  0
  6109  1  0  0  0  0
  7 30  1  0  0  0  0
  8 28  1  0  0  0  0
  8110  1  0  0  0  0
  9 29  1  0  0  0  0
  9111  1  0  0  0  0
 10 32  1  0  0  0  0
 10112  1  0  0  0  0
 11 33  1  0  0  0  0
 11113  1  0  0  0  0
 13 34  2  0  0  0  0
 14120  1  0  0  0  0
 15 35  2  0  0  0  0
 17 38  1  0  0  0  0
 18121  1  0  0  0  0
 20 24  1  0  0  0  0
 20 34  1  0  0  0  0
 20105  1  0  0  0  0
 21 26  1  0  0  0  0
 21 35  1  0  0  0  0
 21106  1  0  0  0  0
 22 23  1  0  0  0  0
 22 27  1  0  0  0  0
 22 93  1  0  0  0  0
 23 26  1  0  0  0  0
 23 94  1  0  0  0  0
 24 25  1  0  0  0  0
 24 28  1  0  0  0  0
 24 95  1  0  0  0  0
 25 96  1  0  0  0  0
 26 30  1  0  0  0  0
 26 97  1  0  0  0  0
 27 32  1  0  0  0  0
 27 98  1  0  0  0  0
 28 29  1  0  0  0  0
 28 99  1  0  0  0  0
 29 31  1  0  0  0  0
 29100  1  0  0  0  0
 30101  1  0  0  0  0
 31 33  1  0  0  0  0
 31102  1  0  0  0  0
 32103  1  0  0  0  0
 32104  1  0  0  0  0
 33107  1  0  0  0  0
 33108  1  0  0  0  0
 34 36  1  0  0  0  0
 35 37  1  0  0  0  0
 36114  1  0  0  0  0
 36115  1  0  0  0  0
 36116  1  0  0  0  0
 37117  1  0  0  0  0
 37118  1  0  0  0  0
 37119  1  0  0  0  0
 38 39  1  0  0  0  0
 38122  1  0  0  0  0
 38123  1  0  0  0  0
 39 40  2  3  0  0  0
 39124  1  0  0  0  0
 40 41  1  0  0  0  0
 40 42  1  0  0  0  0
 41 43  1  0  0  0  0
 41125  1  0  0  0  0
 41126  1  0  0  0  0
 42127  1  0  0  0  0
 42128  1  0  0  0  0
 42129  1  0  0  0  0
 43 44  1  0  0  0  0
 43130  1  0  0  0  0
 43131  1  0  0  0  0
 44 45  2  3  0  0  0
 44132  1  0  0  0  0
 45 46  1  0  0  0  0
 45 47  1  0  0  0  0
 46 48  1  0  0  0  0
 46133  1  0  0  0  0
 46134  1  0  0  0  0
 47135  1  0  0  0  0
 47136  1  0  0  0  0
 47137  1  0  0  0  0
 48 49  1  0  0  0  0
 48138  1  0  0  0  0
 48139  1  0  0  0  0
 49 50  2  3  0  0  0
 49140  1  0  0  0  0
 50 51  1  0  0  0  0
 50 53  1  0  0  0  0
 51 52  1  0  0  0  0
 51141  1  0  0  0  0
 51142  1  0  0  0  0
 52 54  1  0  0  0  0
 52143  1  0  0  0  0
 52144  1  0  0  0  0
 53145  1  0  0  0  0
 53146  1  0  0  0  0
 53147  1  0  0  0  0
 54 56  2  3  0  0  0
 54150  1  0  0  0  0
 55 56  1  0  0  0  0
 55 57  1  0  0  0  0
 55148  1  0  0  0  0
 55149  1  0  0  0  0
 56 74  1  0  0  0  0
 57 67  1  0  0  0  0
 57151  1  0  0  0  0
 57152  1  0  0  0  0
 58 60  1  0  0  0  0
 58 63  1  0  0  0  0
 58153  1  0  0  0  0
 58154  1  0  0  0  0
 59 61  1  0  0  0  0
 59 64  1  0  0  0  0
 59155  1  0  0  0  0
 59156  1  0  0  0  0
 60 69  1  0  0  0  0
 60157  1  0  0  0  0
 60158  1  0  0  0  0
 61 71  1  0  0  0  0
 61159  1  0  0  0  0
 61160  1  0  0  0  0
 62 65  1  0  0  0  0
 62 66  1  0  0  0  0
 62161  1  0  0  0  0
 62162  1  0  0  0  0
 63 67  2  3  0  0  0
 63 79  1  0  0  0  0
 64 69  2  3  0  0  0
 64 80  1  0  0  0  0
 65 73  1  0  0  0  0
 65163  1  0  0  0  0
 65164  1  0  0  0  0
 66 71  2  3  0  0  0
 66 81  1  0  0  0  0
 67165  1  0  0  0  0
 68 70  1  0  0  0  0
 68 72  1  0  0  0  0
 68166  1  0  0  0  0
 68167  1  0  0  0  0
 69168  1  0  0  0  0
 70 73  2  3  0  0  0
 70 82  1  0  0  0  0
 71169  1  0  0  0  0
 72 77  1  0  0  0  0
 72170  1  0  0  0  0
 72171  1  0  0  0  0
 73172  1  0  0  0  0
 74175  1  0  0  0  0
 74176  1  0  0  0  0
 74177  1  0  0  0  0
 75 76  1  0  0  0  0
 75 78  1  0  0  0  0
 75173  1  0  0  0  0
 75174  1  0  0  0  0
 76 77  2  3  0  0  0
 76 85  1  0  0  0  0
 77178  1  0  0  0  0
 78 83  1  0  0  0  0
 78179  1  0  0  0  0
 78180  1  0  0  0  0
 79181  1  0  0  0  0
 79182  1  0  0  0  0
 79183  1  0  0  0  0
 80184  1  0  0  0  0
 80185  1  0  0  0  0
 80186  1  0  0  0  0
 81187  1  0  0  0  0
 81188  1  0  0  0  0
 81189  1  0  0  0  0
 82190  1  0  0  0  0
 82191  1  0  0  0  0
 82192  1  0  0  0  0
 83 84  2  3  0  0  0
 83193  1  0  0  0  0
 84 86  1  0  0  0  0
 84 88  1  0  0  0  0
 85194  1  0  0  0  0
 85195  1  0  0  0  0
 85196  1  0  0  0  0
 86 87  1  0  0  0  0
 86197  1  0  0  0  0
 86198  1  0  0  0  0
 87 89  1  0  0  0  0
 87199  1  0  0  0  0
 87200  1  0  0  0  0
 88201  1  0  0  0  0
 88202  1  0  0  0  0
 88203  1  0  0  0  0
 89 90  2  0  0  0  0
 89204  1  0  0  0  0
 90 91  1  0  0  0  0
 90 92  1  0  0  0  0
 91205  1  0  0  0  0
 91206  1  0  0  0  0
 91207  1  0  0  0  0
 92208  1  0  0  0  0
 92209  1  0  0  0  0
 92210  1  0  0  0  0
M  END
> <PUBCHEM_COMPOUND_CID>
183

> <PUBCHEM_COMPOUND_CANONICALIZED>
1

> <PUBCHEM_CACTVS_COMPLEXITY>
2710

> <PUBCHEM_CACTVS_HBOND_ACCEPTOR>
17

> <PUBCHEM_CACTVS_HBOND_DONOR>
9

> <PUBCHEM_CACTVS_ROTATABLE_BOND>
43

> <PUBCHEM_CACTVS_SUBSKEYS>
AAADcfB/PgMAAAAAAAAAAAAAAAAAAAAAAAAkSAAAAAAAAAAAAAAAHgAQCCAADDzxgAcCCALABxCIQiFSEIAAAAAgAAAACIAIAAgTFAIAgQAnUAAHlgCfAAPwcA8AAAAAAAAAAAAAAAAAAAAAAAAAAAAAAA==

> <PUBCHEM_IUPAC_OPENEYE_NAME>
[3-acetamido-5-[3-acetamido-4,5-dihydroxy-6-(hydroxymethyl)tetrahydropyran-2-yl]oxy-4-hydroxy-6-(hydroxymethyl)tetrahydropyran-2-yl] [hydroxy(3,7,11,15,19,23,27,31,35,39,43-undecamethyltetratetraconta-2,6,10,14,18,22,26,30,34,38,42-undecaenoxy)phosphoryl] hydrogen phosphate

> <PUBCHEM_IUPAC_CAS_NAME>
[3-acetamido-5-[[3-acetamido-4,5-dihydroxy-6-(hydroxymethyl)-2-oxanyl]oxy]-4-hydroxy-6-(hydroxymethyl)-2-oxanyl] [hydroxy(3,7,11,15,19,23,27,31,35,39,43-undecamethyltetratetraconta-2,6,10,14,18,22,26,30,34,38,42-undecaenoxy)phosphoryl] hydrogen phosphate

> <PUBCHEM_IUPAC_NAME_MARKUP>
[3-acetamido-5-[3-acetamido-4,5-dihydroxy-6-(hydroxymethyl)oxan-2-yl]oxy-4-hydroxy-6-(hydroxymethyl)oxan-2-yl] [hydroxy(3,7,11,15,19,23,27,31,35,39,43-undecamethyltetratetraconta-2,6,10,14,18,22,26,30,34,38,42-undecaenoxy)phosphoryl] hydrogen phosphate

> <PUBCHEM_IUPAC_NAME>
[3-acetamido-5-[3-acetamido-4,5-dihydroxy-6-(hydroxymethyl)oxan-2-yl]oxy-4-hydroxy-6-(hydroxymethyl)oxan-2-yl] [hydroxy(3,7,11,15,19,23,27,31,35,39,43-undecamethyltetratetraconta-2,6,10,14,18,22,26,30,34,38,42-undecaenoxy)phosphoryl] hydrogen phosphate

> <PUBCHEM_IUPAC_SYSTEMATIC_NAME>
[3-acetamido-5-[3-acetamido-6-(hydroxymethyl)-4,5-bis(oxidanyl)oxan-2-yl]oxy-6-(hydroxymethyl)-4-oxidanyl-oxan-2-yl] [oxidanyl(3,7,11,15,19,23,27,31,35,39,43-undecamethyltetratetraconta-2,6,10,14,18,22,26,30,34,38,42-undecaenoxy)phosphoryl] hydrogen phosphate

> <PUBCHEM_IUPAC_TRADITIONAL_NAME>
[3-acetamido-5-(3-acetamido-4,5-dihydroxy-6-methylol-tetrahydropyran-2-yl)oxy-4-hydroxy-6-methylol-tetrahydropyran-2-yl] [hydroxy(3,7,11,15,19,23,27,31,35,39,43-undecamethyltetratetraconta-2,6,10,14,18,22,26,30,34,38,42-undecaenoxy)phosphoryl] hydrogen phosphate

> <PUBCHEM_IUPAC_INCHI>
InChI=1S/C71H118N2O17P2/c1-49(2)25-15-26-50(3)27-16-28-51(4)29-17-30-52(5)31-18-32-53(6)33-19-34-54(7)35-20-36-55(8)37-21-38-56(9)39-22-40-57(10)41-23-42-58(11)43-24-44-59(12)45-46-85-91(81,82)90-92(83,84)89-71-65(73-61(14)77)68(80)69(63(48-75)87-71)88-70-64(72-60(13)76)67(79)66(78)62(47-74)86-70/h25,27,29,31,33,35,37,39,41,43,45,62-71,74-75,78-80H,15-24,26,28,30,32,34,36,38,40,42,44,46-48H2,1-14H3,(H,72,76)(H,73,77)(H,81,82)(H,83,84)

> <PUBCHEM_IUPAC_INCHIKEY>
CALMUTCFVFZDOC-UHFFFAOYSA-N

> <PUBCHEM_XLOGP3_AA>
13.7

> <PUBCHEM_EXACT_MASS>
1332.79057430

> <PUBCHEM_MOLECULAR_FORMULA>
C71H118N2O17P2

> <PUBCHEM_MOLECULAR_WEIGHT>
1333.6

> <PUBCHEM_SMILES>
CC(=CCCC(=CCCC(=CCCC(=CCCC(=CCCC(=CCCC(=CCCC(=CCCC(=CCCC(=CCCC(=CCOP(=O)(O)OP(=O)(O)OC1C(C(C(C(O1)CO)OC2C(C(C(C(O2)CO)O)O)NC(=O)C)O)NC(=O)C)C)C)C)C)C)C)C)C)C)C)C

> <PUBCHEM_CONNECTIVITY_SMILES>
CC(=CCCC(=CCCC(=CCCC(=CCCC(=CCCC(=CCCC(=CCCC(=CCCC(=CCCC(=CCCC(=CCOP(=O)(O)OP(=O)(O)OC1C(C(C(C(O1)CO)OC2C(C(C(C(O2)CO)O)O)NC(=O)C)O)NC(=O)C)C)C)C)C)C)C)C)C)C)C)C

> <PUBCHEM_CACTVS_TPSA>
289

> <PUBCHEM_MONOISOTOPIC_WEIGHT>
1332.79057430

> <PUBCHEM_TOTAL_CHARGE>
0

> <PUBCHEM_HEAVY_ATOM_COUNT>
92

> <PUBCHEM_ATOM_DEF_STEREO_COUNT>
0

> <PUBCHEM_ATOM_UDEF_STEREO_COUNT>
10

> <PUBCHEM_BOND_DEF_STEREO_COUNT>
0

> <PUBCHEM_BOND_UDEF_STEREO_COUNT>
10

> <PUBCHEM_ISOTOPIC_ATOM_COUNT>
0

> <PUBCHEM_COMPONENT_COUNT>
1

> <PUBCHEM_CACTVS_TAUTO_COUNT>
-1

> <PUBCHEM_COORDINATE_TYPE>
1
5
255

> <PUBCHEM_BONDANNOTATIONS>
24  20  3
26  21  3
27  32  3
22  3  3
25  3  3
31  33  3
39  40  1
44  45  1
49  50  1
54  56  1
23  6  3
63  67  1
64  69  1
66  71  1
30  7  3
70  73  1
76  77  1
28  8  3
83  84  1
29  9  3

$$$$
