182
  -OEChem-08152602272D

183183  0     1  0  0  0  0  0999 V2000
    6.0010  -15.3450    0.0000 P   0  0  3  0  0  0  0  0  0  0  0  0
    6.8671  -13.8450    0.0000 P   0  0  3  0  0  0  0  0  0  0  0  0
    4.2690  -16.3450    0.0000 O   0  0  0  0  0  0  0  0  0  0  0  0
    4.2690  -19.3450    0.0000 O   0  0  0  0  0  0  0  0  0  0  0  0
    6.0010  -16.3450    0.0000 O   0  0  0  0  0  0  0  0  0  0  0  0
    2.5369  -18.3450    0.0000 O   0  0  0  0  0  0  0  0  0  0  0  0
    2.5369  -15.3450    0.0000 O   0  0  0  0  0  0  0  0  0  0  0  0
    6.0010  -14.3450    0.0000 O   0  0  0  0  0  0  0  0  0  0  0  0
    7.0010  -15.3450    0.0000 O   0  0  0  0  0  0  0  0  0  0  0  0
    6.8671  -16.8450    0.0000 O   0  0  0  0  0  0  0  0  0  0  0  0
    5.0010  -15.3450    0.0000 O   0  0  0  0  0  0  0  0  0  0  0  0
    7.7331  -13.3450    0.0000 O   0  0  0  0  0  0  0  0  0  0  0  0
    6.3671  -12.9790    0.0000 O   0  0  0  0  0  0  0  0  0  0  0  0
    7.3671  -14.7110    0.0000 O   0  0  0  0  0  0  0  0  0  0  0  0
    6.0010  -18.3450    0.0000 N   0  0  0  0  0  0  0  0  0  0  0  0
    5.1350  -17.8450    0.0000 C   0  0  3  0  0  0  0  0  0  0  0  0
    4.2690  -18.3450    0.0000 C   0  0  3  0  0  0  0  0  0  0  0  0
    3.4030  -17.8450    0.0000 C   0  0  3  0  0  0  0  0  0  0  0  0
    3.4030  -16.8450    0.0000 C   0  0  3  0  0  0  0  0  0  0  0  0
    5.1350  -16.8450    0.0000 C   0  0  3  0  0  0  0  0  0  0  0  0
    2.5369  -16.3450    0.0000 C   0  0  0  0  0  0  0  0  0  0  0  0
    6.8671  -17.8450    0.0000 C   0  0  0  0  0  0  0  0  0  0  0  0
    7.7331  -18.3450    0.0000 C   0  0  0  0  0  0  0  0  0  0  0  0
    7.7331  -12.3450    0.0000 C   0  0  0  0  0  0  0  0  0  0  0  0
    8.5991  -11.8450    0.0000 C   0  0  0  0  0  0  0  0  0  0  0  0
    8.5991  -10.8450    0.0000 C   0  0  0  0  0  0  0  0  0  0  0  0
    9.4651  -10.3450    0.0000 C   0  0  0  0  0  0  0  0  0  0  0  0
    7.7331  -10.3450    0.0000 C   0  0  0  0  0  0  0  0  0  0  0  0
    9.4651   -9.3450    0.0000 C   0  0  0  0  0  0  0  0  0  0  0  0
   10.3312   -8.8450    0.0000 C   0  0  0  0  0  0  0  0  0  0  0  0
   10.3312   -7.8450    0.0000 C   0  0  0  0  0  0  0  0  0  0  0  0
   11.1972   -7.3450    0.0000 C   0  0  0  0  0  0  0  0  0  0  0  0
   11.1972   -6.3450    0.0000 C   0  0  0  0  0  0  0  0  0  0  0  0
   12.9292   -4.3450    0.0000 C   0  0  0  0  0  0  0  0  0  0  0  0
   16.3933    1.6550    0.0000 C   0  0  0  0  0  0  0  0  0  0  0  0
   18.1254    4.6550    0.0000 C   0  0  0  0  0  0  0  0  0  0  0  0
   14.6613   -1.3450    0.0000 C   0  0  0  0  0  0  0  0  0  0  0  0
   12.0632   -4.8450    0.0000 C   0  0  0  0  0  0  0  0  0  0  0  0
   12.9292   -3.3450    0.0000 C   0  0  0  0  0  0  0  0  0  0  0  0
   16.3933    2.6550    0.0000 C   0  0  0  0  0  0  0  0  0  0  0  0
   19.8574    7.6550    0.0000 C   0  0  0  0  0  0  0  0  0  0  0  0
   14.6613   -0.3450    0.0000 C   0  0  0  0  0  0  0  0  0  0  0  0
   18.1254    5.6550    0.0000 C   0  0  0  0  0  0  0  0  0  0  0  0
   12.0632   -5.8450    0.0000 C   0  0  0  0  0  0  0  0  0  0  0  0
    9.4651   -7.3450    0.0000 C   0  0  0  0  0  0  0  0  0  0  0  0
   19.8574    8.6550    0.0000 C   0  0  0  0  0  0  0  0  0  0  0  0
   15.5273    1.1550    0.0000 C   0  0  0  0  0  0  0  0  0  0  0  0
   17.2594    4.1550    0.0000 C   0  0  0  0  0  0  0  0  0  0  0  0
   13.7953   -1.8450    0.0000 C   0  0  0  0  0  0  0  0  0  0  0  0
   18.9914    7.1550    0.0000 C   0  0  0  0  0  0  0  0  0  0  0  0
   21.5895   10.6550    0.0000 C   0  0  0  0  0  0  0  0  0  0  0  0
   20.7235   10.1550    0.0000 C   0  0  0  0  0  0  0  0  0  0  0  0
   21.5895   11.6550    0.0000 C   0  0  0  0  0  0  0  0  0  0  0  0
   13.7953   -2.8450    0.0000 C   0  0  0  0  0  0  0  0  0  0  0  0
   17.2594    3.1550    0.0000 C   0  0  0  0  0  0  0  0  0  0  0  0
   15.5273    0.1550    0.0000 C   0  0  0  0  0  0  0  0  0  0  0  0
   18.9914    6.1550    0.0000 C   0  0  0  0  0  0  0  0  0  0  0  0
   20.7235    9.1550    0.0000 C   0  0  0  0  0  0  0  0  0  0  0  0
   23.3215   13.6550    0.0000 C   0  0  0  0  0  0  0  0  0  0  0  0
   22.4555   13.1550    0.0000 C   0  0  0  0  0  0  0  0  0  0  0  0
   22.4555   12.1550    0.0000 C   0  0  0  0  0  0  0  0  0  0  0  0
   23.3215   14.6550    0.0000 C   0  0  0  0  0  0  0  0  0  0  0  0
   11.1972   -4.3450    0.0000 C   0  0  0  0  0  0  0  0  0  0  0  0
   14.6613    1.6550    0.0000 C   0  0  0  0  0  0  0  0  0  0  0  0
   16.3933    4.6550    0.0000 C   0  0  0  0  0  0  0  0  0  0  0  0
   12.9292   -1.3450    0.0000 C   0  0  0  0  0  0  0  0  0  0  0  0
   18.1254    7.6550    0.0000 C   0  0  0  0  0  0  0  0  0  0  0  0
   19.8574   10.6550    0.0000 C   0  0  0  0  0  0  0  0  0  0  0  0
   24.1876   15.1550    0.0000 C   0  0  0  0  0  0  0  0  0  0  0  0
   24.1876   16.1550    0.0000 C   0  0  0  0  0  0  0  0  0  0  0  0
   25.0536   16.6550    0.0000 C   0  0  0  0  0  0  0  0  0  0  0  0
   21.5895   13.6550    0.0000 C   0  0  0  0  0  0  0  0  0  0  0  0
   25.0536   17.6550    0.0000 C   0  0  0  0  0  0  0  0  0  0  0  0
   23.3215   16.6550    0.0000 C   0  0  0  0  0  0  0  0  0  0  0  0
   25.9196   18.1550    0.0000 C   0  0  0  0  0  0  0  0  0  0  0  0
   25.9196   19.1550    0.0000 C   0  0  0  0  0  0  0  0  0  0  0  0
   26.7856   19.6550    0.0000 C   0  0  0  0  0  0  0  0  0  0  0  0
   25.0536   19.6550    0.0000 C   0  0  0  0  0  0  0  0  0  0  0  0
    5.6720  -17.5350    0.0000 H   0  0  0  0  0  0  0  0  0  0  0  0
    4.8059  -18.6550    0.0000 H   0  0  0  0  0  0  0  0  0  0  0  0
    3.4030  -18.4650    0.0000 H   0  0  0  0  0  0  0  0  0  0  0  0
    3.4030  -16.2250    0.0000 H   0  0  0  0  0  0  0  0  0  0  0  0
    5.1350  -16.2250    0.0000 H   0  0  0  0  0  0  0  0  0  0  0  0
    1.9264  -16.2373    0.0000 H   0  0  0  0  0  0  0  0  0  0  0  0
    2.3249  -16.9276    0.0000 H   0  0  0  0  0  0  0  0  0  0  0  0
    6.0010  -18.9650    0.0000 H   0  0  0  0  0  0  0  0  0  0  0  0
    3.7320  -19.6550    0.0000 H   0  0  0  0  0  0  0  0  0  0  0  0
    2.0000  -18.0350    0.0000 H   0  0  0  0  0  0  0  0  0  0  0  0
    2.0000  -15.0350    0.0000 H   0  0  0  0  0  0  0  0  0  0  0  0
    7.4231  -18.8819    0.0000 H   0  0  0  0  0  0  0  0  0  0  0  0
    8.2700  -18.6550    0.0000 H   0  0  0  0  0  0  0  0  0  0  0  0
    8.0431  -17.8081    0.0000 H   0  0  0  0  0  0  0  0  0  0  0  0
    7.3110  -15.8819    0.0000 H   0  0  0  0  0  0  0  0  0  0  0  0
    5.7471  -12.9790    0.0000 H   0  0  0  0  0  0  0  0  0  0  0  0
    7.5210  -11.7624    0.0000 H   0  0  0  0  0  0  0  0  0  0  0  0
    7.1225  -12.4527    0.0000 H   0  0  0  0  0  0  0  0  0  0  0  0
    9.1360  -12.1550    0.0000 H   0  0  0  0  0  0  0  0  0  0  0  0
    9.6772  -10.9276    0.0000 H   0  0  0  0  0  0  0  0  0  0  0  0
   10.0757  -10.2373    0.0000 H   0  0  0  0  0  0  0  0  0  0  0  0
    8.0431   -9.8081    0.0000 H   0  0  0  0  0  0  0  0  0  0  0  0
    7.1962  -10.0350    0.0000 H   0  0  0  0  0  0  0  0  0  0  0  0
    7.4231  -10.8819    0.0000 H   0  0  0  0  0  0  0  0  0  0  0  0
    9.2531   -8.7624    0.0000 H   0  0  0  0  0  0  0  0  0  0  0  0
    8.8546   -9.4527    0.0000 H   0  0  0  0  0  0  0  0  0  0  0  0
   10.8681   -9.1550    0.0000 H   0  0  0  0  0  0  0  0  0  0  0  0
   11.4092   -7.9276    0.0000 H   0  0  0  0  0  0  0  0  0  0  0  0
   11.8078   -7.2373    0.0000 H   0  0  0  0  0  0  0  0  0  0  0  0
   10.9851   -5.7624    0.0000 H   0  0  0  0  0  0  0  0  0  0  0  0
   10.5866   -6.4527    0.0000 H   0  0  0  0  0  0  0  0  0  0  0  0
   13.1413   -4.9276    0.0000 H   0  0  0  0  0  0  0  0  0  0  0  0
   13.5398   -4.2373    0.0000 H   0  0  0  0  0  0  0  0  0  0  0  0
   16.6054    1.0724    0.0000 H   0  0  0  0  0  0  0  0  0  0  0  0
   17.0039    1.7627    0.0000 H   0  0  0  0  0  0  0  0  0  0  0  0
   18.3374    4.0724    0.0000 H   0  0  0  0  0  0  0  0  0  0  0  0
   18.7360    4.7627    0.0000 H   0  0  0  0  0  0  0  0  0  0  0  0
   14.8733   -1.9276    0.0000 H   0  0  0  0  0  0  0  0  0  0  0  0
   15.2719   -1.2373    0.0000 H   0  0  0  0  0  0  0  0  0  0  0  0
   12.7172   -2.7624    0.0000 H   0  0  0  0  0  0  0  0  0  0  0  0
   12.3187   -3.4527    0.0000 H   0  0  0  0  0  0  0  0  0  0  0  0
   16.1813    3.2376    0.0000 H   0  0  0  0  0  0  0  0  0  0  0  0
   15.7828    2.5473    0.0000 H   0  0  0  0  0  0  0  0  0  0  0  0
   20.0695    7.0724    0.0000 H   0  0  0  0  0  0  0  0  0  0  0  0
   20.4680    7.7627    0.0000 H   0  0  0  0  0  0  0  0  0  0  0  0
   14.4492    0.2376    0.0000 H   0  0  0  0  0  0  0  0  0  0  0  0
   14.0507   -0.4527    0.0000 H   0  0  0  0  0  0  0  0  0  0  0  0
   17.9133    6.2376    0.0000 H   0  0  0  0  0  0  0  0  0  0  0  0
   17.5148    5.5473    0.0000 H   0  0  0  0  0  0  0  0  0  0  0  0
   12.6002   -6.1550    0.0000 H   0  0  0  0  0  0  0  0  0  0  0  0
   19.6454    9.2376    0.0000 H   0  0  0  0  0  0  0  0  0  0  0  0
   19.2469    8.5473    0.0000 H   0  0  0  0  0  0  0  0  0  0  0  0
    9.7751   -6.8081    0.0000 H   0  0  0  0  0  0  0  0  0  0  0  0
    8.9282   -7.0350    0.0000 H   0  0  0  0  0  0  0  0  0  0  0  0
    9.1551   -7.8819    0.0000 H   0  0  0  0  0  0  0  0  0  0  0  0
   21.8015   10.0724    0.0000 H   0  0  0  0  0  0  0  0  0  0  0  0
   22.2001   10.7627    0.0000 H   0  0  0  0  0  0  0  0  0  0  0  0
   21.3774   12.2376    0.0000 H   0  0  0  0  0  0  0  0  0  0  0  0
   20.9789   11.5473    0.0000 H   0  0  0  0  0  0  0  0  0  0  0  0
   17.7963    2.8450    0.0000 H   0  0  0  0  0  0  0  0  0  0  0  0
   14.3322   -3.1550    0.0000 H   0  0  0  0  0  0  0  0  0  0  0  0
   16.0643   -0.1550    0.0000 H   0  0  0  0  0  0  0  0  0  0  0  0
   19.5284    5.8450    0.0000 H   0  0  0  0  0  0  0  0  0  0  0  0
   21.2604    8.8450    0.0000 H   0  0  0  0  0  0  0  0  0  0  0  0
   23.5336   13.0724    0.0000 H   0  0  0  0  0  0  0  0  0  0  0  0
   23.9321   13.7627    0.0000 H   0  0  0  0  0  0  0  0  0  0  0  0
   22.9925   11.8450    0.0000 H   0  0  0  0  0  0  0  0  0  0  0  0
   23.1095   15.2376    0.0000 H   0  0  0  0  0  0  0  0  0  0  0  0
   22.7110   14.5473    0.0000 H   0  0  0  0  0  0  0  0  0  0  0  0
   11.5072   -3.8081    0.0000 H   0  0  0  0  0  0  0  0  0  0  0  0
   10.6603   -4.0350    0.0000 H   0  0  0  0  0  0  0  0  0  0  0  0
   10.8872   -4.8819    0.0000 H   0  0  0  0  0  0  0  0  0  0  0  0
   14.9713    2.1919    0.0000 H   0  0  0  0  0  0  0  0  0  0  0  0
   14.1244    1.9650    0.0000 H   0  0  0  0  0  0  0  0  0  0  0  0
   14.3513    1.1181    0.0000 H   0  0  0  0  0  0  0  0  0  0  0  0
   16.7033    5.1919    0.0000 H   0  0  0  0  0  0  0  0  0  0  0  0
   15.8564    4.9650    0.0000 H   0  0  0  0  0  0  0  0  0  0  0  0
   16.0833    4.1181    0.0000 H   0  0  0  0  0  0  0  0  0  0  0  0
   13.2392   -0.8081    0.0000 H   0  0  0  0  0  0  0  0  0  0  0  0
   12.3923   -1.0350    0.0000 H   0  0  0  0  0  0  0  0  0  0  0  0
   12.6192   -1.8819    0.0000 H   0  0  0  0  0  0  0  0  0  0  0  0
   18.4354    8.1919    0.0000 H   0  0  0  0  0  0  0  0  0  0  0  0
   17.5885    7.9650    0.0000 H   0  0  0  0  0  0  0  0  0  0  0  0
   17.8154    7.1181    0.0000 H   0  0  0  0  0  0  0  0  0  0  0  0
   20.1674   11.1919    0.0000 H   0  0  0  0  0  0  0  0  0  0  0  0
   19.3205   10.9650    0.0000 H   0  0  0  0  0  0  0  0  0  0  0  0
   19.5474   10.1181    0.0000 H   0  0  0  0  0  0  0  0  0  0  0  0
   24.7245   14.8450    0.0000 H   0  0  0  0  0  0  0  0  0  0  0  0
   25.2656   16.0724    0.0000 H   0  0  0  0  0  0  0  0  0  0  0  0
   25.6642   16.7627    0.0000 H   0  0  0  0  0  0  0  0  0  0  0  0
   21.8995   14.1919    0.0000 H   0  0  0  0  0  0  0  0  0  0  0  0
   21.0526   13.9650    0.0000 H   0  0  0  0  0  0  0  0  0  0  0  0
   21.2795   13.1181    0.0000 H   0  0  0  0  0  0  0  0  0  0  0  0
   24.8415   18.2376    0.0000 H   0  0  0  0  0  0  0  0  0  0  0  0
   24.4430   17.5473    0.0000 H   0  0  0  0  0  0  0  0  0  0  0  0
   23.6315   17.1919    0.0000 H   0  0  0  0  0  0  0  0  0  0  0  0
   22.7846   16.9650    0.0000 H   0  0  0  0  0  0  0  0  0  0  0  0
   23.0115   16.1181    0.0000 H   0  0  0  0  0  0  0  0  0  0  0  0
   26.4566   17.8450    0.0000 H   0  0  0  0  0  0  0  0  0  0  0  0
   27.0956   19.1181    0.0000 H   0  0  0  0  0  0  0  0  0  0  0  0
   27.3226   19.9650    0.0000 H   0  0  0  0  0  0  0  0  0  0  0  0
   26.4756   20.1919    0.0000 H   0  0  0  0  0  0  0  0  0  0  0  0
   25.3636   20.1919    0.0000 H   0  0  0  0  0  0  0  0  0  0  0  0
   24.5167   19.9650    0.0000 H   0  0  0  0  0  0  0  0  0  0  0  0
   24.7436   19.1181    0.0000 H   0  0  0  0  0  0  0  0  0  0  0  0
  1  5  1  0  0  0  0
  1  8  1  0  0  0  0
  1  9  1  0  0  0  0
  1 11  2  0  0  0  0
  2  8  1  0  0  0  0
  2 12  1  0  0  0  0
  2 13  1  0  0  0  0
  2 14  2  0  0  0  0
  3 19  1  0  0  0  0
  3 20  1  0  0  0  0
  4 17  1  0  0  0  0
  4 87  1  0  0  0  0
  5 20  1  0  0  0  0
  6 18  1  0  0  0  0
  6 88  1  0  0  0  0
  7 21  1  0  0  0  0
  7 89  1  0  0  0  0
  9 93  1  0  0  0  0
 10 22  2  0  0  0  0
 12 24  1  0  0  0  0
 13 94  1  0  0  0  0
 15 16  1  0  0  0  0
 15 22  1  0  0  0  0
 15 86  1  0  0  0  0
 16 17  1  0  0  0  0
 16 20  1  0  0  0  0
 16 79  1  0  0  0  0
 17 18  1  0  0  0  0
 17 80  1  0  0  0  0
 18 19  1  0  0  0  0
 18 81  1  0  0  0  0
 19 21  1  0  0  0  0
 19 82  1  0  0  0  0
 20 83  1  0  0  0  0
 21 84  1  0  0  0  0
 21 85  1  0  0  0  0
 22 23  1  0  0  0  0
 23 90  1  0  0  0  0
 23 91  1  0  0  0  0
 23 92  1  0  0  0  0
 24 25  1  0  0  0  0
 24 95  1  0  0  0  0
 24 96  1  0  0  0  0
 25 26  2  3  0  0  0
 25 97  1  0  0  0  0
 26 27  1  0  0  0  0
 26 28  1  0  0  0  0
 27 29  1  0  0  0  0
 27 98  1  0  0  0  0
 27 99  1  0  0  0  0
 28100  1  0  0  0  0
 28101  1  0  0  0  0
 28102  1  0  0  0  0
 29 30  1  0  0  0  0
 29103  1  0  0  0  0
 29104  1  0  0  0  0
 30 31  2  3  0  0  0
 30105  1  0  0  0  0
 31 32  1  0  0  0  0
 31 45  1  0  0  0  0
 32 33  1  0  0  0  0
 32106  1  0  0  0  0
 32107  1  0  0  0  0
 33 44  1  0  0  0  0
 33108  1  0  0  0  0
 33109  1  0  0  0  0
 34 38  1  0  0  0  0
 34 39  1  0  0  0  0
 34110  1  0  0  0  0
 34111  1  0  0  0  0
 35 40  1  0  0  0  0
 35 47  1  0  0  0  0
 35112  1  0  0  0  0
 35113  1  0  0  0  0
 36 43  1  0  0  0  0
 36 48  1  0  0  0  0
 36114  1  0  0  0  0
 36115  1  0  0  0  0
 37 42  1  0  0  0  0
 37 49  1  0  0  0  0
 37116  1  0  0  0  0
 37117  1  0  0  0  0
 38 44  2  3  0  0  0
 38 63  1  0  0  0  0
 39 54  1  0  0  0  0
 39118  1  0  0  0  0
 39119  1  0  0  0  0
 40 55  1  0  0  0  0
 40120  1  0  0  0  0
 40121  1  0  0  0  0
 41 46  1  0  0  0  0
 41 50  1  0  0  0  0
 41122  1  0  0  0  0
 41123  1  0  0  0  0
 42 56  1  0  0  0  0
 42124  1  0  0  0  0
 42125  1  0  0  0  0
 43 57  1  0  0  0  0
 43126  1  0  0  0  0
 43127  1  0  0  0  0
 44128  1  0  0  0  0
 45131  1  0  0  0  0
 45132  1  0  0  0  0
 45133  1  0  0  0  0
 46 58  1  0  0  0  0
 46129  1  0  0  0  0
 46130  1  0  0  0  0
 47 56  2  3  0  0  0
 47 64  1  0  0  0  0
 48 55  2  3  0  0  0
 48 65  1  0  0  0  0
 49 54  2  3  0  0  0
 49 66  1  0  0  0  0
 50 57  2  3  0  0  0
 50 67  1  0  0  0  0
 51 52  1  0  0  0  0
 51 53  1  0  0  0  0
 51134  1  0  0  0  0
 51135  1  0  0  0  0
 52 58  2  3  0  0  0
 52 68  1  0  0  0  0
 53 61  1  0  0  0  0
 53136  1  0  0  0  0
 53137  1  0  0  0  0
 54139  1  0  0  0  0
 55138  1  0  0  0  0
 56140  1  0  0  0  0
 57141  1  0  0  0  0
 58142  1  0  0  0  0
 59 60  1  0  0  0  0
 59 62  1  0  0  0  0
 59143  1  0  0  0  0
 59144  1  0  0  0  0
 60 61  2  3  0  0  0
 60 72  1  0  0  0  0
 61145  1  0  0  0  0
 62 69  1  0  0  0  0
 62146  1  0  0  0  0
 62147  1  0  0  0  0
 63148  1  0  0  0  0
 63149  1  0  0  0  0
 63150  1  0  0  0  0
 64151  1  0  0  0  0
 64152  1  0  0  0  0
 64153  1  0  0  0  0
 65154  1  0  0  0  0
 65155  1  0  0  0  0
 65156  1  0  0  0  0
 66157  1  0  0  0  0
 66158  1  0  0  0  0
 66159  1  0  0  0  0
 67160  1  0  0  0  0
 67161  1  0  0  0  0
 67162  1  0  0  0  0
 68163  1  0  0  0  0
 68164  1  0  0  0  0
 68165  1  0  0  0  0
 69 70  2  3  0  0  0
 69166  1  0  0  0  0
 70 71  1  0  0  0  0
 70 74  1  0  0  0  0
 71 73  1  0  0  0  0
 71167  1  0  0  0  0
 71168  1  0  0  0  0
 72169  1  0  0  0  0
 72170  1  0  0  0  0
 72171  1  0  0  0  0
 73 75  1  0  0  0  0
 73172  1  0  0  0  0
 73173  1  0  0  0  0
 74174  1  0  0  0  0
 74175  1  0  0  0  0
 74176  1  0  0  0  0
 75 76  2  0  0  0  0
 75177  1  0  0  0  0
 76 77  1  0  0  0  0
 76 78  1  0  0  0  0
 77178  1  0  0  0  0
 77179  1  0  0  0  0
 77180  1  0  0  0  0
 78181  1  0  0  0  0
 78182  1  0  0  0  0
 78183  1  0  0  0  0
M  END
> <PUBCHEM_COMPOUND_CID>
182

> <PUBCHEM_COMPOUND_CANONICALIZED>
1

> <PUBCHEM_CACTVS_COMPLEXITY>
2260

> <PUBCHEM_CACTVS_HBOND_ACCEPTOR>
12

> <PUBCHEM_CACTVS_HBOND_DONOR>
6

> <PUBCHEM_CACTVS_ROTATABLE_BOND>
39

> <PUBCHEM_CACTVS_SUBSKEYS>
AAADcfB+PAMAAAAAAAAAAAAAAAAAAAAAAAAkAAAAAAAAAAAAAAAAHgAQCCAADDzxgAcCCALABxCIQiFSEIAAAAAgAAAACIAIAAgTFAIAgQAHUAAHlgCfAAPwcAcAAAAAAAAAAAAAAAAAAAAAAAAAAAAAAA==

> <PUBCHEM_IUPAC_OPENEYE_NAME>
[3-acetamido-4,5-dihydroxy-6-(hydroxymethyl)tetrahydropyran-2-yl] [hydroxy(3,7,11,15,19,23,27,31,35,39,43-undecamethyltetratetraconta-2,6,10,14,18,22,26,30,34,38,42-undecaenoxy)phosphoryl] hydrogen phosphate

> <PUBCHEM_IUPAC_CAS_NAME>
[3-acetamido-4,5-dihydroxy-6-(hydroxymethyl)-2-oxanyl] [hydroxy(3,7,11,15,19,23,27,31,35,39,43-undecamethyltetratetraconta-2,6,10,14,18,22,26,30,34,38,42-undecaenoxy)phosphoryl] hydrogen phosphate

> <PUBCHEM_IUPAC_NAME_MARKUP>
[3-acetamido-4,5-dihydroxy-6-(hydroxymethyl)oxan-2-yl] [hydroxy(3,7,11,15,19,23,27,31,35,39,43-undecamethyltetratetraconta-2,6,10,14,18,22,26,30,34,38,42-undecaenoxy)phosphoryl] hydrogen phosphate

> <PUBCHEM_IUPAC_NAME>
[3-acetamido-4,5-dihydroxy-6-(hydroxymethyl)oxan-2-yl] [hydroxy(3,7,11,15,19,23,27,31,35,39,43-undecamethyltetratetraconta-2,6,10,14,18,22,26,30,34,38,42-undecaenoxy)phosphoryl] hydrogen phosphate

> <PUBCHEM_IUPAC_SYSTEMATIC_NAME>
[3-acetamido-6-(hydroxymethyl)-4,5-bis(oxidanyl)oxan-2-yl] [oxidanyl(3,7,11,15,19,23,27,31,35,39,43-undecamethyltetratetraconta-2,6,10,14,18,22,26,30,34,38,42-undecaenoxy)phosphoryl] hydrogen phosphate

> <PUBCHEM_IUPAC_TRADITIONAL_NAME>
(3-acetamido-4,5-dihydroxy-6-methylol-tetrahydropyran-2-yl) [hydroxy(3,7,11,15,19,23,27,31,35,39,43-undecamethyltetratetraconta-2,6,10,14,18,22,26,30,34,38,42-undecaenoxy)phosphoryl] hydrogen phosphate

> <PUBCHEM_IUPAC_INCHI>
InChI=1S/C63H105NO12P2/c1-47(2)24-14-25-48(3)26-15-27-49(4)28-16-29-50(5)30-17-31-51(6)32-18-33-52(7)34-19-35-53(8)36-20-37-54(9)38-21-39-55(10)40-22-41-56(11)42-23-43-57(12)44-45-73-77(69,70)76-78(71,72)75-63-60(64-58(13)66)62(68)61(67)59(46-65)74-63/h24,26,28,30,32,34,36,38,40,42,44,59-63,65,67-68H,14-23,25,27,29,31,33,35,37,39,41,43,45-46H2,1-13H3,(H,64,66)(H,69,70)(H,71,72)

> <PUBCHEM_IUPAC_INCHIKEY>
NEVJGTXBHJNFAZ-UHFFFAOYSA-N

> <PUBCHEM_XLOGP3_AA>
15.8

> <PUBCHEM_EXACT_MASS>
1129.71120178

> <PUBCHEM_MOLECULAR_FORMULA>
C63H105NO12P2

> <PUBCHEM_MOLECULAR_WEIGHT>
1130.5

> <PUBCHEM_SMILES>
CC(=CCCC(=CCCC(=CCCC(=CCCC(=CCCC(=CCCC(=CCCC(=CCCC(=CCCC(=CCCC(=CCOP(=O)(O)OP(=O)(O)OC1C(C(C(C(O1)CO)O)O)NC(=O)C)C)C)C)C)C)C)C)C)C)C)C

> <PUBCHEM_CONNECTIVITY_SMILES>
CC(=CCCC(=CCCC(=CCCC(=CCCC(=CCCC(=CCCC(=CCCC(=CCCC(=CCCC(=CCCC(=CCOP(=O)(O)OP(=O)(O)OC1C(C(C(C(O1)CO)O)O)NC(=O)C)C)C)C)C)C)C)C)C)C)C)C

> <PUBCHEM_CACTVS_TPSA>
201

> <PUBCHEM_MONOISOTOPIC_WEIGHT>
1129.71120178

> <PUBCHEM_TOTAL_CHARGE>
0

> <PUBCHEM_HEAVY_ATOM_COUNT>
78

> <PUBCHEM_ATOM_DEF_STEREO_COUNT>
0

> <PUBCHEM_ATOM_UDEF_STEREO_COUNT>
5

> <PUBCHEM_BOND_DEF_STEREO_COUNT>
0

> <PUBCHEM_BOND_UDEF_STEREO_COUNT>
10

> <PUBCHEM_ISOTOPIC_ATOM_COUNT>
0

> <PUBCHEM_COMPONENT_COUNT>
1

> <PUBCHEM_CACTVS_TAUTO_COUNT>
-1

> <PUBCHEM_COORDINATE_TYPE>
1
5
255

> <PUBCHEM_BONDANNOTATIONS>
16  15  3
19  21  3
25  26  1
30  31  1
38  44  1
17  4  3
47  56  1
48  55  1
49  54  1
20  5  3
50  57  1
52  58  1
18  6  3
60  61  1
69  70  1

$$$$
