862
  -OEChem-08152603182D

225226  0     1  0  0  0  0  0999 V2000
   14.1244    8.0950    0.0000 P   0  0  0  0  0  0  0  0  0  0  0  0
   21.0526    5.0950    0.0000 P   0  0  0  0  0  0  0  0  0  0  0  0
   16.7224    6.5950    0.0000 O   0  0  0  0  0  0  0  0  0  0  0  0
   17.5885    5.0950    0.0000 O   0  0  0  0  0  0  0  0  0  0  0  0
   19.3205    4.0950    0.0000 O   0  0  0  0  0  0  0  0  0  0  0  0
   14.1244    5.0950    0.0000 O   0  0  0  0  0  0  0  0  0  0  0  0
   14.1244    7.0950    0.0000 O   0  0  0  0  0  0  0  0  0  0  0  0
   19.3205    1.0950    0.0000 O   0  0  0  0  0  0  0  0  0  0  0  0
   17.5885    2.0950    0.0000 O   0  0  0  0  0  0  0  0  0  0  0  0
   21.0526    4.0950    0.0000 O   0  0  0  0  0  0  0  0  0  0  0  0
   16.7224    8.5950    0.0000 O   0  0  0  0  0  0  0  0  0  0  0  0
   14.1244    4.0950    0.0000 O   0  0  0  0  0  0  0  0  0  0  0  0
   14.1244    9.0950    0.0000 O   0  0  0  0  0  0  0  0  0  0  0  0
   13.1244    8.0950    0.0000 O   0  0  0  0  0  0  0  0  0  0  0  0
   21.9186    3.5950    0.0000 O   0  0  0  0  0  0  0  0  0  0  0  0
   13.2583    6.5950    0.0000 O   0  0  0  0  0  0  0  0  0  0  0  0
   15.1244    8.0950    0.0000 O   0  0  0  0  0  0  0  0  0  0  0  0
   13.2583    2.5950    0.0000 O   0  0  0  0  0  0  0  0  0  0  0  0
   17.5885    1.0950    0.0000 O   0  0  0  0  0  0  0  0  0  0  0  0
   21.0526    6.0950    0.0000 O   0  0  0  0  0  0  0  0  0  0  0  0
   22.0526    5.0950    0.0000 O   0  0  0  0  0  0  0  0  0  0  0  0
   20.0526    5.0950    0.0000 O   0  0  0  0  0  0  0  0  0  0  0  0
   23.6506    3.5950    0.0000 O   0  0  0  0  0  0  0  0  0  0  0  0
   11.5263    6.5950    0.0000 O   0  0  0  0  0  0  0  0  0  0  0  0
   16.7224   -0.4050    0.0000 O   0  0  0  0  0  0  0  0  0  0  0  0
   15.8564    4.0950    0.0000 N   0  0  0  0  0  0  0  0  0  0  0  0
   21.0526    2.0950    0.0000 N   0  0  0  0  0  0  0  0  0  0  0  0
   15.8564    5.0950    0.0000 C   0  0  3  0  0  0  0  0  0  0  0  0
   14.9904    5.5950    0.0000 C   0  0  3  0  0  0  0  0  0  0  0  0
   14.9904    6.5950    0.0000 C   0  0  3  0  0  0  0  0  0  0  0  0
   16.7224    5.5950    0.0000 C   0  0  3  0  0  0  0  0  0  0  0  0
   18.4545    3.5950    0.0000 C   0  0  3  0  0  0  0  0  0  0  0  0
   18.4545    2.5950    0.0000 C   0  0  3  0  0  0  0  0  0  0  0  0
   19.3205    2.0950    0.0000 C   0  0  3  0  0  0  0  0  0  0  0  0
   15.8564    7.0950    0.0000 C   0  0  3  0  0  0  0  0  0  0  0  0
   20.1865    2.5950    0.0000 C   0  0  3  0  0  0  0  0  0  0  0  0
   20.1865    3.5950    0.0000 C   0  0  3  0  0  0  0  0  0  0  0  0
   17.5885    4.0950    0.0000 C   0  0  0  0  0  0  0  0  0  0  0  0
   15.8564    8.0950    0.0000 C   0  0  0  0  0  0  0  0  0  0  0  0
   14.9904    3.5950    0.0000 C   0  0  0  0  0  0  0  0  0  0  0  0
   21.9186    2.5950    0.0000 C   0  0  0  0  0  0  0  0  0  0  0  0
   13.2583    5.5950    0.0000 C   0  0  0  0  0  0  0  0  0  0  0  0
   14.9904    2.5950    0.0000 C   0  0  0  0  0  0  0  0  0  0  0  0
   18.4545    0.5950    0.0000 C   0  0  0  0  0  0  0  0  0  0  0  0
   22.7846    2.0950    0.0000 C   0  0  0  0  0  0  0  0  0  0  0  0
   12.3923    5.0950    0.0000 C   0  0  0  0  0  0  0  0  0  0  0  0
   14.1244    2.0950    0.0000 C   0  0  3  0  0  0  0  0  0  0  0  0
   18.4545   -0.4050    0.0000 C   0  0  0  0  0  0  0  0  0  0  0  0
   23.6506    2.5950    0.0000 C   0  0  3  0  0  0  0  0  0  0  0  0
   11.5263    5.5950    0.0000 C   0  0  3  0  0  0  0  0  0  0  0  0
   14.1244    1.0950    0.0000 C   0  0  0  0  0  0  0  0  0  0  0  0
   17.5885   -0.9050    0.0000 C   0  0  3  0  0  0  0  0  0  0  0  0
   24.5167    2.0950    0.0000 C   0  0  0  0  0  0  0  0  0  0  0  0
   10.6603    5.0950    0.0000 C   0  0  0  0  0  0  0  0  0  0  0  0
   13.2583    0.5950    0.0000 C   0  0  0  0  0  0  0  0  0  0  0  0
   17.5885   -1.9050    0.0000 C   0  0  0  0  0  0  0  0  0  0  0  0
   25.3827    2.5950    0.0000 C   0  0  0  0  0  0  0  0  0  0  0  0
    9.7942    5.5950    0.0000 C   0  0  0  0  0  0  0  0  0  0  0  0
   13.2583   -0.4050    0.0000 C   0  0  0  0  0  0  0  0  0  0  0  0
   16.7224   -2.4050    0.0000 C   0  0  0  0  0  0  0  0  0  0  0  0
   26.2487    2.0950    0.0000 C   0  0  0  0  0  0  0  0  0  0  0  0
    8.9282    5.0950    0.0000 C   0  0  0  0  0  0  0  0  0  0  0  0
   12.3923   -0.9050    0.0000 C   0  0  0  0  0  0  0  0  0  0  0  0
   16.7224   -3.4050    0.0000 C   0  0  0  0  0  0  0  0  0  0  0  0
   27.1147    2.5950    0.0000 C   0  0  0  0  0  0  0  0  0  0  0  0
    8.0622    5.5950    0.0000 C   0  0  0  0  0  0  0  0  0  0  0  0
   12.3923   -1.9050    0.0000 C   0  0  0  0  0  0  0  0  0  0  0  0
   15.8564   -3.9050    0.0000 C   0  0  0  0  0  0  0  0  0  0  0  0
   27.9808    2.0950    0.0000 C   0  0  0  0  0  0  0  0  0  0  0  0
    7.1962    5.0950    0.0000 C   0  0  0  0  0  0  0  0  0  0  0  0
   11.5263   -2.4050    0.0000 C   0  0  0  0  0  0  0  0  0  0  0  0
   15.8564   -4.9050    0.0000 C   0  0  0  0  0  0  0  0  0  0  0  0
   28.8468    2.5950    0.0000 C   0  0  0  0  0  0  0  0  0  0  0  0
    6.3301    5.5950    0.0000 C   0  0  0  0  0  0  0  0  0  0  0  0
   11.5263   -3.4050    0.0000 C   0  0  0  0  0  0  0  0  0  0  0  0
   14.9904   -5.4050    0.0000 C   0  0  0  0  0  0  0  0  0  0  0  0
   29.7128    2.0950    0.0000 C   0  0  0  0  0  0  0  0  0  0  0  0
    5.4641    5.0950    0.0000 C   0  0  0  0  0  0  0  0  0  0  0  0
   14.9904   -6.4050    0.0000 C   0  0  0  0  0  0  0  0  0  0  0  0
   10.6603   -3.9050    0.0000 C   0  0  0  0  0  0  0  0  0  0  0  0
   30.5788    2.5950    0.0000 C   0  0  0  0  0  0  0  0  0  0  0  0
    4.5981    5.5950    0.0000 C   0  0  0  0  0  0  0  0  0  0  0  0
   14.1244   -6.9050    0.0000 C   0  0  0  0  0  0  0  0  0  0  0  0
   10.6603   -4.9050    0.0000 C   0  0  0  0  0  0  0  0  0  0  0  0
   31.4449    2.0950    0.0000 C   0  0  0  0  0  0  0  0  0  0  0  0
    3.7320    5.0950    0.0000 C   0  0  0  0  0  0  0  0  0  0  0  0
   14.1244   -7.9050    0.0000 C   0  0  0  0  0  0  0  0  0  0  0  0
    9.7942   -5.4050    0.0000 C   0  0  0  0  0  0  0  0  0  0  0  0
   32.3109    2.5950    0.0000 C   0  0  0  0  0  0  0  0  0  0  0  0
    2.8660    5.5950    0.0000 C   0  0  0  0  0  0  0  0  0  0  0  0
   13.2583   -8.4050    0.0000 C   0  0  0  0  0  0  0  0  0  0  0  0
    9.7942   -6.4050    0.0000 C   0  0  0  0  0  0  0  0  0  0  0  0
   33.1769    2.0950    0.0000 C   0  0  0  0  0  0  0  0  0  0  0  0
    2.0000    5.0950    0.0000 C   0  0  0  0  0  0  0  0  0  0  0  0
   13.2583   -9.4050    0.0000 C   0  0  0  0  0  0  0  0  0  0  0  0
   15.3195    4.7850    0.0000 H   0  0  0  0  0  0  0  0  0  0  0  0
   14.9904    4.9750    0.0000 H   0  0  0  0  0  0  0  0  0  0  0  0
   14.9904    7.2150    0.0000 H   0  0  0  0  0  0  0  0  0  0  0  0
   16.7224    4.9750    0.0000 H   0  0  0  0  0  0  0  0  0  0  0  0
   18.4545    4.2150    0.0000 H   0  0  0  0  0  0  0  0  0  0  0  0
   18.4545    1.9750    0.0000 H   0  0  0  0  0  0  0  0  0  0  0  0
   19.8574    1.7850    0.0000 H   0  0  0  0  0  0  0  0  0  0  0  0
   16.3933    7.4050    0.0000 H   0  0  0  0  0  0  0  0  0  0  0  0
   20.7235    2.9050    0.0000 H   0  0  0  0  0  0  0  0  0  0  0  0
   20.1865    4.2150    0.0000 H   0  0  0  0  0  0  0  0  0  0  0  0
   16.9779    4.2027    0.0000 H   0  0  0  0  0  0  0  0  0  0  0  0
   17.3764    3.5124    0.0000 H   0  0  0  0  0  0  0  0  0  0  0  0
   16.3933    3.7850    0.0000 H   0  0  0  0  0  0  0  0  0  0  0  0
   15.6444    8.6776    0.0000 H   0  0  0  0  0  0  0  0  0  0  0  0
   15.2458    7.9873    0.0000 H   0  0  0  0  0  0  0  0  0  0  0  0
   21.0526    1.4750    0.0000 H   0  0  0  0  0  0  0  0  0  0  0  0
   17.0515    2.4050    0.0000 H   0  0  0  0  0  0  0  0  0  0  0  0
   15.2024    2.0124    0.0000 H   0  0  0  0  0  0  0  0  0  0  0  0
   15.6010    2.7027    0.0000 H   0  0  0  0  0  0  0  0  0  0  0  0
   22.3861    1.6200    0.0000 H   0  0  0  0  0  0  0  0  0  0  0  0
   23.1831    1.6200    0.0000 H   0  0  0  0  0  0  0  0  0  0  0  0
   11.9938    4.6200    0.0000 H   0  0  0  0  0  0  0  0  0  0  0  0
   12.7908    4.6200    0.0000 H   0  0  0  0  0  0  0  0  0  0  0  0
   16.7224    9.2150    0.0000 H   0  0  0  0  0  0  0  0  0  0  0  0
   13.5874    1.7850    0.0000 H   0  0  0  0  0  0  0  0  0  0  0  0
   18.6665   -0.9876    0.0000 H   0  0  0  0  0  0  0  0  0  0  0  0
   19.0651   -0.2973    0.0000 H   0  0  0  0  0  0  0  0  0  0  0  0
   24.1876    2.9050    0.0000 H   0  0  0  0  0  0  0  0  0  0  0  0
   12.0632    5.9050    0.0000 H   0  0  0  0  0  0  0  0  0  0  0  0
   14.3364    0.5124    0.0000 H   0  0  0  0  0  0  0  0  0  0  0  0
   14.7349    1.2027    0.0000 H   0  0  0  0  0  0  0  0  0  0  0  0
   17.5885   -0.2850    0.0000 H   0  0  0  0  0  0  0  0  0  0  0  0
   24.1181    1.6200    0.0000 H   0  0  0  0  0  0  0  0  0  0  0  0
   24.9152    1.6200    0.0000 H   0  0  0  0  0  0  0  0  0  0  0  0
   10.2617    4.6200    0.0000 H   0  0  0  0  0  0  0  0  0  0  0  0
   11.0588    4.6200    0.0000 H   0  0  0  0  0  0  0  0  0  0  0  0
   13.0463    1.1776    0.0000 H   0  0  0  0  0  0  0  0  0  0  0  0
   12.6477    0.4873    0.0000 H   0  0  0  0  0  0  0  0  0  0  0  0
   17.8005   -2.4876    0.0000 H   0  0  0  0  0  0  0  0  0  0  0  0
   18.1990   -1.7973    0.0000 H   0  0  0  0  0  0  0  0  0  0  0  0
   13.5874    9.4050    0.0000 H   0  0  0  0  0  0  0  0  0  0  0  0
   12.8144    8.6319    0.0000 H   0  0  0  0  0  0  0  0  0  0  0  0
   25.7812    3.0700    0.0000 H   0  0  0  0  0  0  0  0  0  0  0  0
   24.9842    3.0700    0.0000 H   0  0  0  0  0  0  0  0  0  0  0  0
   10.1928    6.0700    0.0000 H   0  0  0  0  0  0  0  0  0  0  0  0
    9.3957    6.0700    0.0000 H   0  0  0  0  0  0  0  0  0  0  0  0
   13.4704   -0.9876    0.0000 H   0  0  0  0  0  0  0  0  0  0  0  0
   13.8689   -0.2973    0.0000 H   0  0  0  0  0  0  0  0  0  0  0  0
   16.5104   -1.8224    0.0000 H   0  0  0  0  0  0  0  0  0  0  0  0
   16.1119   -2.5127    0.0000 H   0  0  0  0  0  0  0  0  0  0  0  0
   12.7214    2.2850    0.0000 H   0  0  0  0  0  0  0  0  0  0  0  0
   21.5895    6.4050    0.0000 H   0  0  0  0  0  0  0  0  0  0  0  0
   22.3626    5.6319    0.0000 H   0  0  0  0  0  0  0  0  0  0  0  0
   25.8502    1.6200    0.0000 H   0  0  0  0  0  0  0  0  0  0  0  0
   26.6472    1.6200    0.0000 H   0  0  0  0  0  0  0  0  0  0  0  0
    8.5297    4.6200    0.0000 H   0  0  0  0  0  0  0  0  0  0  0  0
    9.3267    4.6200    0.0000 H   0  0  0  0  0  0  0  0  0  0  0  0
   12.1803   -0.3224    0.0000 H   0  0  0  0  0  0  0  0  0  0  0  0
   11.7817   -1.0127    0.0000 H   0  0  0  0  0  0  0  0  0  0  0  0
   24.1876    3.9050    0.0000 H   0  0  0  0  0  0  0  0  0  0  0  0
   10.9893    6.9050    0.0000 H   0  0  0  0  0  0  0  0  0  0  0  0
   16.9345   -3.9876    0.0000 H   0  0  0  0  0  0  0  0  0  0  0  0
   17.3330   -3.2973    0.0000 H   0  0  0  0  0  0  0  0  0  0  0  0
   16.1855   -0.7150    0.0000 H   0  0  0  0  0  0  0  0  0  0  0  0
   27.5133    3.0700    0.0000 H   0  0  0  0  0  0  0  0  0  0  0  0
   26.7162    3.0700    0.0000 H   0  0  0  0  0  0  0  0  0  0  0  0
    8.4607    6.0700    0.0000 H   0  0  0  0  0  0  0  0  0  0  0  0
    7.6636    6.0700    0.0000 H   0  0  0  0  0  0  0  0  0  0  0  0
   12.6044   -2.4876    0.0000 H   0  0  0  0  0  0  0  0  0  0  0  0
   13.0029   -1.7973    0.0000 H   0  0  0  0  0  0  0  0  0  0  0  0
   15.6444   -3.3224    0.0000 H   0  0  0  0  0  0  0  0  0  0  0  0
   15.2458   -4.0127    0.0000 H   0  0  0  0  0  0  0  0  0  0  0  0
   27.5822    1.6200    0.0000 H   0  0  0  0  0  0  0  0  0  0  0  0
   28.3793    1.6200    0.0000 H   0  0  0  0  0  0  0  0  0  0  0  0
    6.7976    4.6200    0.0000 H   0  0  0  0  0  0  0  0  0  0  0  0
    7.5947    4.6200    0.0000 H   0  0  0  0  0  0  0  0  0  0  0  0
   11.3142   -1.8224    0.0000 H   0  0  0  0  0  0  0  0  0  0  0  0
   10.9157   -2.5127    0.0000 H   0  0  0  0  0  0  0  0  0  0  0  0
   16.0685   -5.4876    0.0000 H   0  0  0  0  0  0  0  0  0  0  0  0
   16.4670   -4.7973    0.0000 H   0  0  0  0  0  0  0  0  0  0  0  0
   29.2453    3.0700    0.0000 H   0  0  0  0  0  0  0  0  0  0  0  0
   28.4483    3.0700    0.0000 H   0  0  0  0  0  0  0  0  0  0  0  0
    6.7287    6.0700    0.0000 H   0  0  0  0  0  0  0  0  0  0  0  0
    5.9316    6.0700    0.0000 H   0  0  0  0  0  0  0  0  0  0  0  0
   11.7383   -3.9876    0.0000 H   0  0  0  0  0  0  0  0  0  0  0  0
   12.1369   -3.2973    0.0000 H   0  0  0  0  0  0  0  0  0  0  0  0
   14.7783   -4.8224    0.0000 H   0  0  0  0  0  0  0  0  0  0  0  0
   14.3798   -5.5127    0.0000 H   0  0  0  0  0  0  0  0  0  0  0  0
   29.3143    1.6200    0.0000 H   0  0  0  0  0  0  0  0  0  0  0  0
   30.1113    1.6200    0.0000 H   0  0  0  0  0  0  0  0  0  0  0  0
    5.0656    4.6200    0.0000 H   0  0  0  0  0  0  0  0  0  0  0  0
    5.8626    4.6200    0.0000 H   0  0  0  0  0  0  0  0  0  0  0  0
   15.2024   -6.9876    0.0000 H   0  0  0  0  0  0  0  0  0  0  0  0
   15.6010   -6.2973    0.0000 H   0  0  0  0  0  0  0  0  0  0  0  0
   10.4482   -3.3224    0.0000 H   0  0  0  0  0  0  0  0  0  0  0  0
   10.0497   -4.0127    0.0000 H   0  0  0  0  0  0  0  0  0  0  0  0
   30.9774    3.0700    0.0000 H   0  0  0  0  0  0  0  0  0  0  0  0
   30.1803    3.0700    0.0000 H   0  0  0  0  0  0  0  0  0  0  0  0
    4.9966    6.0700    0.0000 H   0  0  0  0  0  0  0  0  0  0  0  0
    4.1996    6.0700    0.0000 H   0  0  0  0  0  0  0  0  0  0  0  0
   13.9123   -6.3224    0.0000 H   0  0  0  0  0  0  0  0  0  0  0  0
   13.5138   -7.0127    0.0000 H   0  0  0  0  0  0  0  0  0  0  0  0
   10.8723   -5.4876    0.0000 H   0  0  0  0  0  0  0  0  0  0  0  0
   11.2708   -4.7973    0.0000 H   0  0  0  0  0  0  0  0  0  0  0  0
   31.0463    1.6200    0.0000 H   0  0  0  0  0  0  0  0  0  0  0  0
   31.8434    1.6200    0.0000 H   0  0  0  0  0  0  0  0  0  0  0  0
    3.3335    4.6200    0.0000 H   0  0  0  0  0  0  0  0  0  0  0  0
    4.1306    4.6200    0.0000 H   0  0  0  0  0  0  0  0  0  0  0  0
   14.3364   -8.4876    0.0000 H   0  0  0  0  0  0  0  0  0  0  0  0
   14.7349   -7.7973    0.0000 H   0  0  0  0  0  0  0  0  0  0  0  0
    9.5822   -4.8224    0.0000 H   0  0  0  0  0  0  0  0  0  0  0  0
    9.1836   -5.5127    0.0000 H   0  0  0  0  0  0  0  0  0  0  0  0
   32.7094    3.0700    0.0000 H   0  0  0  0  0  0  0  0  0  0  0  0
   31.9124    3.0700    0.0000 H   0  0  0  0  0  0  0  0  0  0  0  0
    3.2646    6.0700    0.0000 H   0  0  0  0  0  0  0  0  0  0  0  0
    2.4675    6.0700    0.0000 H   0  0  0  0  0  0  0  0  0  0  0  0
   13.0463   -7.8224    0.0000 H   0  0  0  0  0  0  0  0  0  0  0  0
   12.6477   -8.5127    0.0000 H   0  0  0  0  0  0  0  0  0  0  0  0
    9.1742   -6.4050    0.0000 H   0  0  0  0  0  0  0  0  0  0  0  0
    9.7942   -7.0250    0.0000 H   0  0  0  0  0  0  0  0  0  0  0  0
   10.4142   -6.4050    0.0000 H   0  0  0  0  0  0  0  0  0  0  0  0
   32.8669    1.5581    0.0000 H   0  0  0  0  0  0  0  0  0  0  0  0
   33.7138    1.7850    0.0000 H   0  0  0  0  0  0  0  0  0  0  0  0
   33.4869    2.6319    0.0000 H   0  0  0  0  0  0  0  0  0  0  0  0
    1.6900    5.6319    0.0000 H   0  0  0  0  0  0  0  0  0  0  0  0
    1.4631    4.7850    0.0000 H   0  0  0  0  0  0  0  0  0  0  0  0
    2.3100    4.5581    0.0000 H   0  0  0  0  0  0  0  0  0  0  0  0
   12.6383   -9.4050    0.0000 H   0  0  0  0  0  0  0  0  0  0  0  0
   13.2583  -10.0250    0.0000 H   0  0  0  0  0  0  0  0  0  0  0  0
   13.8783   -9.4050    0.0000 H   0  0  0  0  0  0  0  0  0  0  0  0
  1  7  1  0  0  0  0
  1 13  1  0  0  0  0
  1 14  1  0  0  0  0
  1 17  2  0  0  0  0
  2 10  1  0  0  0  0
  2 20  1  0  0  0  0
  2 21  1  0  0  0  0
  2 22  2  0  0  0  0
  3 31  1  0  0  0  0
  3 35  1  0  0  0  0
  4 31  1  0  0  0  0
  4 38  1  0  0  0  0
  5 32  1  0  0  0  0
  5 37  1  0  0  0  0
  6 29  1  0  0  0  0
  6 42  1  0  0  0  0
  7 30  1  0  0  0  0
  8 34  1  0  0  0  0
  8 44  1  0  0  0  0
  9 33  1  0  0  0  0
  9112  1  0  0  0  0
 10 37  1  0  0  0  0
 11 39  1  0  0  0  0
 11119  1  0  0  0  0
 12 40  2  0  0  0  0
 13136  1  0  0  0  0
 14137  1  0  0  0  0
 15 41  2  0  0  0  0
 16 42  2  0  0  0  0
 18 47  1  0  0  0  0
 18146  1  0  0  0  0
 19 44  2  0  0  0  0
 20147  1  0  0  0  0
 21148  1  0  0  0  0
 23 49  1  0  0  0  0
 23155  1  0  0  0  0
 24 50  1  0  0  0  0
 24156  1  0  0  0  0
 25 52  1  0  0  0  0
 25159  1  0  0  0  0
 26 28  1  0  0  0  0
 26 40  1  0  0  0  0
 26108  1  0  0  0  0
 27 36  1  0  0  0  0
 27 41  1  0  0  0  0
 27111  1  0  0  0  0
 28 29  1  0  0  0  0
 28 31  1  0  0  0  0
 28 96  1  0  0  0  0
 29 30  1  0  0  0  0
 29 97  1  0  0  0  0
 30 35  1  0  0  0  0
 30 98  1  0  0  0  0
 31 99  1  0  0  0  0
 32 33  1  0  0  0  0
 32 38  1  0  0  0  0
 32100  1  0  0  0  0
 33 34  1  0  0  0  0
 33101  1  0  0  0  0
 34 36  1  0  0  0  0
 34102  1  0  0  0  0
 35 39  1  0  0  0  0
 35103  1  0  0  0  0
 36 37  1  0  0  0  0
 36104  1  0  0  0  0
 37105  1  0  0  0  0
 38106  1  0  0  0  0
 38107  1  0  0  0  0
 39109  1  0  0  0  0
 39110  1  0  0  0  0
 40 43  1  0  0  0  0
 41 45  1  0  0  0  0
 42 46  1  0  0  0  0
 43 47  1  0  0  0  0
 43113  1  0  0  0  0
 43114  1  0  0  0  0
 44 48  1  0  0  0  0
 45 49  1  0  0  0  0
 45115  1  0  0  0  0
 45116  1  0  0  0  0
 46 50  1  0  0  0  0
 46117  1  0  0  0  0
 46118  1  0  0  0  0
 47 51  1  0  0  0  0
 47120  1  0  0  0  0
 48 52  1  0  0  0  0
 48121  1  0  0  0  0
 48122  1  0  0  0  0
 49 53  1  0  0  0  0
 49123  1  0  0  0  0
 50 54  1  0  0  0  0
 50124  1  0  0  0  0
 51 55  1  0  0  0  0
 51125  1  0  0  0  0
 51126  1  0  0  0  0
 52 56  1  0  0  0  0
 52127  1  0  0  0  0
 53 57  1  0  0  0  0
 53128  1  0  0  0  0
 53129  1  0  0  0  0
 54 58  1  0  0  0  0
 54130  1  0  0  0  0
 54131  1  0  0  0  0
 55 59  1  0  0  0  0
 55132  1  0  0  0  0
 55133  1  0  0  0  0
 56 60  1  0  0  0  0
 56134  1  0  0  0  0
 56135  1  0  0  0  0
 57 61  1  0  0  0  0
 57138  1  0  0  0  0
 57139  1  0  0  0  0
 58 62  1  0  0  0  0
 58140  1  0  0  0  0
 58141  1  0  0  0  0
 59 63  1  0  0  0  0
 59142  1  0  0  0  0
 59143  1  0  0  0  0
 60 64  1  0  0  0  0
 60144  1  0  0  0  0
 60145  1  0  0  0  0
 61 65  1  0  0  0  0
 61149  1  0  0  0  0
 61150  1  0  0  0  0
 62 66  1  0  0  0  0
 62151  1  0  0  0  0
 62152  1  0  0  0  0
 63 67  1  0  0  0  0
 63153  1  0  0  0  0
 63154  1  0  0  0  0
 64 68  1  0  0  0  0
 64157  1  0  0  0  0
 64158  1  0  0  0  0
 65 69  1  0  0  0  0
 65160  1  0  0  0  0
 65161  1  0  0  0  0
 66 70  1  0  0  0  0
 66162  1  0  0  0  0
 66163  1  0  0  0  0
 67 71  1  0  0  0  0
 67164  1  0  0  0  0
 67165  1  0  0  0  0
 68 72  1  0  0  0  0
 68166  1  0  0  0  0
 68167  1  0  0  0  0
 69 73  1  0  0  0  0
 69168  1  0  0  0  0
 69169  1  0  0  0  0
 70 74  1  0  0  0  0
 70170  1  0  0  0  0
 70171  1  0  0  0  0
 71 75  1  0  0  0  0
 71172  1  0  0  0  0
 71173  1  0  0  0  0
 72 76  1  0  0  0  0
 72174  1  0  0  0  0
 72175  1  0  0  0  0
 73 77  1  0  0  0  0
 73176  1  0  0  0  0
 73177  1  0  0  0  0
 74 78  1  0  0  0  0
 74178  1  0  0  0  0
 74179  1  0  0  0  0
 75 80  1  0  0  0  0
 75180  1  0  0  0  0
 75181  1  0  0  0  0
 76 79  1  0  0  0  0
 76182  1  0  0  0  0
 76183  1  0  0  0  0
 77 81  1  0  0  0  0
 77184  1  0  0  0  0
 77185  1  0  0  0  0
 78 82  1  0  0  0  0
 78186  1  0  0  0  0
 78187  1  0  0  0  0
 79 83  1  0  0  0  0
 79188  1  0  0  0  0
 79189  1  0  0  0  0
 80 84  1  0  0  0  0
 80190  1  0  0  0  0
 80191  1  0  0  0  0
 81 85  1  0  0  0  0
 81192  1  0  0  0  0
 81193  1  0  0  0  0
 82 86  1  0  0  0  0
 82194  1  0  0  0  0
 82195  1  0  0  0  0
 83 87  1  0  0  0  0
 83196  1  0  0  0  0
 83197  1  0  0  0  0
 84 88  1  0  0  0  0
 84198  1  0  0  0  0
 84199  1  0  0  0  0
 85 89  1  0  0  0  0
 85200  1  0  0  0  0
 85201  1  0  0  0  0
 86 90  1  0  0  0  0
 86202  1  0  0  0  0
 86203  1  0  0  0  0
 87 91  1  0  0  0  0
 87204  1  0  0  0  0
 87205  1  0  0  0  0
 88 92  1  0  0  0  0
 88206  1  0  0  0  0
 88207  1  0  0  0  0
 89 93  1  0  0  0  0
 89208  1  0  0  0  0
 89209  1  0  0  0  0
 90 94  1  0  0  0  0
 90210  1  0  0  0  0
 90211  1  0  0  0  0
 91 95  1  0  0  0  0
 91212  1  0  0  0  0
 91213  1  0  0  0  0
 92214  1  0  0  0  0
 92215  1  0  0  0  0
 92216  1  0  0  0  0
 93217  1  0  0  0  0
 93218  1  0  0  0  0
 93219  1  0  0  0  0
 94220  1  0  0  0  0
 94221  1  0  0  0  0
 94222  1  0  0  0  0
 95223  1  0  0  0  0
 95224  1  0  0  0  0
 95225  1  0  0  0  0
M  END
> <PUBCHEM_COMPOUND_CID>
862

> <PUBCHEM_COMPOUND_CANONICALIZED>
1

> <PUBCHEM_CACTVS_COMPLEXITY>
2080

> <PUBCHEM_CACTVS_HBOND_ACCEPTOR>
23

> <PUBCHEM_CACTVS_HBOND_DONOR>
12

> <PUBCHEM_CACTVS_ROTATABLE_BOND>
62

> <PUBCHEM_CACTVS_SUBSKEYS>
AAADcfB/PgMAAAAAAAAAAAAAAAAAAAAAAAAkSAAAAAAAAAAAAAAAHgAQCCAACDzxgAcCCALABxAIQAGQGIAAAAAAAAAAAIEIAAATEBYAgAAnQAAHNgCXAAH4+K+AAAAAAAAAAAAAAAAAAAAAAAAAAAAAAA==

> <PUBCHEM_IUPAC_OPENEYE_NAME>
[3-hydroxy-2-[[6-(hydroxymethyl)-3-(3-hydroxytetradecanoylamino)-4-(3-hydroxytetradecanoyloxy)-5-phosphonooxy-tetrahydropyran-2-yl]oxymethyl]-5-(3-hydroxytetradecanoylamino)-6-phosphonooxy-tetrahydropyran-4-yl] 3-hydroxytetradecanoate

> <PUBCHEM_IUPAC_CAS_NAME>
3-hydroxytetradecanoic acid [3-hydroxy-2-[[6-(hydroxymethyl)-4-(3-hydroxy-1-oxotetradecoxy)-3-[(3-hydroxy-1-oxotetradecyl)amino]-5-phosphonooxy-2-oxanyl]oxymethyl]-5-[(3-hydroxy-1-oxotetradecyl)amino]-6-phosphonooxy-4-oxanyl] ester

> <PUBCHEM_IUPAC_NAME_MARKUP>
[3-hydroxy-2-[[6-(hydroxymethyl)-3-(3-hydroxytetradecanoylamino)-4-(3-hydroxytetradecanoyloxy)-5-phosphonooxyoxan-2-yl]oxymethyl]-5-(3-hydroxytetradecanoylamino)-6-phosphonooxyoxan-4-yl] 3-hydroxytetradecanoate

> <PUBCHEM_IUPAC_NAME>
[3-hydroxy-2-[[6-(hydroxymethyl)-3-(3-hydroxytetradecanoylamino)-4-(3-hydroxytetradecanoyloxy)-5-phosphonooxyoxan-2-yl]oxymethyl]-5-(3-hydroxytetradecanoylamino)-6-phosphonooxyoxan-4-yl] 3-hydroxytetradecanoate

> <PUBCHEM_IUPAC_SYSTEMATIC_NAME>
[2-[[6-(hydroxymethyl)-3-(3-oxidanyltetradecanoylamino)-4-(3-oxidanyltetradecanoyloxy)-5-phosphonooxy-oxan-2-yl]oxymethyl]-3-oxidanyl-5-(3-oxidanyltetradecanoylamino)-6-phosphonooxy-oxan-4-yl] 3-oxidanyltetradecanoate

> <PUBCHEM_IUPAC_TRADITIONAL_NAME>
3-hydroxymyristic acid [3-hydroxy-5-(3-hydroxytetradecanoylamino)-2-[[3-(3-hydroxytetradecanoylamino)-4-(3-hydroxytetradecanoyloxy)-6-methylol-5-phosphonooxy-tetrahydropyran-2-yl]oxymethyl]-6-phosphonooxy-tetrahydropyran-4-yl] ester

> <PUBCHEM_IUPAC_INCHI>
InChI=1S/C68H130N2O23P2/c1-5-9-13-17-21-25-29-33-37-41-51(72)45-57(76)69-61-65(90-59(78)47-53(74)43-39-35-31-27-23-19-15-11-7-3)63(80)56(89-68(61)93-95(84,85)86)50-87-67-62(70-58(77)46-52(73)42-38-34-30-26-22-18-14-10-6-2)66(64(55(49-71)88-67)92-94(81,82)83)91-60(79)48-54(75)44-40-36-32-28-24-20-16-12-8-4/h51-56,61-68,71-75,80H,5-50H2,1-4H3,(H,69,76)(H,70,77)(H2,81,82,83)(H2,84,85,86)

> <PUBCHEM_IUPAC_INCHIKEY>
KVJWZTLXIROHIL-UHFFFAOYSA-N

> <PUBCHEM_XLOGP3_AA>
14.4

> <PUBCHEM_EXACT_MASS>
1404.85396239

> <PUBCHEM_MOLECULAR_FORMULA>
C68H130N2O23P2

> <PUBCHEM_MOLECULAR_WEIGHT>
1405.7

> <PUBCHEM_SMILES>
CCCCCCCCCCCC(CC(=O)NC1C(C(C(OC1OP(=O)(O)O)COC2C(C(C(C(O2)CO)OP(=O)(O)O)OC(=O)CC(CCCCCCCCCCC)O)NC(=O)CC(CCCCCCCCCCC)O)O)OC(=O)CC(CCCCCCCCCCC)O)O

> <PUBCHEM_CONNECTIVITY_SMILES>
CCCCCCCCCCCC(CC(=O)NC1C(C(C(OC1OP(=O)(O)O)COC2C(C(C(C(O2)CO)OP(=O)(O)O)OC(=O)CC(CCCCCCCCCCC)O)NC(=O)CC(CCCCCCCCCCC)O)O)OC(=O)CC(CCCCCCCCCCC)O)O

> <PUBCHEM_CACTVS_TPSA>
393

> <PUBCHEM_MONOISOTOPIC_WEIGHT>
1404.85396239

> <PUBCHEM_TOTAL_CHARGE>
0

> <PUBCHEM_HEAVY_ATOM_COUNT>
95

> <PUBCHEM_ATOM_DEF_STEREO_COUNT>
0

> <PUBCHEM_ATOM_UDEF_STEREO_COUNT>
14

> <PUBCHEM_BOND_DEF_STEREO_COUNT>
0

> <PUBCHEM_BOND_UDEF_STEREO_COUNT>
0

> <PUBCHEM_ISOTOPIC_ATOM_COUNT>
0

> <PUBCHEM_COMPONENT_COUNT>
1

> <PUBCHEM_CACTVS_TAUTO_COUNT>
-1

> <PUBCHEM_COORDINATE_TYPE>
1
5
255

> <PUBCHEM_BONDANNOTATIONS>
37  10  3
47  18  3
49  23  3
50  24  3
52  25  3
28  26  3
36  27  3
32  38  3
35  39  3
31  4  3
29  6  3
30  7  3
34  8  3
33  9  3

$$$$
