737
  -OEChem-08152603093D

 34 34  0     1  0  0  0  0  0999 V2000
   -1.3316   -2.7031   -0.2246 P   0  0  0  0  0  0  0  0  0  0  0  0
   -2.5084    1.9299    0.3375 P   0  0  0  0  0  0  0  0  0  0  0  0
    0.5112   -0.1877   -1.2978 O   0  0  0  0  0  0  0  0  0  0  0  0
    2.8804    2.5127   -0.4918 O   0  0  0  0  0  0  0  0  0  0  0  0
    4.1141    0.1825    0.6788 O   0  0  0  0  0  0  0  0  0  0  0  0
    0.2251   -2.3324   -0.4297 O   0  0  0  0  0  0  0  0  0  0  0  0
    2.1458   -1.7481    1.5834 O   0  0  0  0  0  0  0  0  0  0  0  0
   -1.2795    1.8590   -0.7160 O   0  0  0  0  0  0  0  0  0  0  0  0
   -2.1143   -1.5692   -1.0712 O   0  0  0  0  0  0  0  0  0  0  0  0
   -1.5960   -2.2698    1.3108 O   0  0  0  0  0  0  0  0  0  0  0  0
   -1.6999   -4.1198   -0.5558 O   0  0  0  0  0  0  0  0  0  0  0  0
   -2.2299    3.2943    1.1598 O   0  0  0  0  0  0  0  0  0  0  0  0
   -2.1402    0.7713    1.4039 O   0  0  0  0  0  0  0  0  0  0  0  0
   -3.8739    1.8170   -0.2747 O   0  0  0  0  0  0  0  0  0  0  0  0
    2.4428    1.1815   -0.7418 C   0  0  1  0  0  0  0  0  0  0  0  0
    2.7040    0.3279    0.4968 C   0  0  1  0  0  0  0  0  0  0  0  0
    0.9644    1.1600   -1.1446 C   0  0  2  0  0  0  0  0  0  0  0  0
    2.0992   -1.0644    0.3308 C   0  0  2  0  0  0  0  0  0  0  0  0
    0.6444   -0.9991   -0.1326 C   0  0  1  0  0  0  0  0  0  0  0  0
    0.0421    1.9577   -0.2211 C   0  0  0  0  0  0  0  0  0  0  0  0
    3.0447    0.7935   -1.5738 H   0  0  0  0  0  0  0  0  0  0  0  0
    2.3271    0.8215    1.4004 H   0  0  0  0  0  0  0  0  0  0  0  0
    0.8783    1.6146   -2.1398 H   0  0  0  0  0  0  0  0  0  0  0  0
    2.7021   -1.6510   -0.3740 H   0  0  0  0  0  0  0  0  0  0  0  0
    0.0198   -0.6047    0.6726 H   0  0  0  0  0  0  0  0  0  0  0  0
    0.3230    3.0159   -0.2170 H   0  0  0  0  0  0  0  0  0  0  0  0
    0.0970    1.5986    0.8097 H   0  0  0  0  0  0  0  0  0  0  0  0
    3.8168    2.4690   -0.2330 H   0  0  0  0  0  0  0  0  0  0  0  0
    4.2499   -0.3810    1.4598 H   0  0  0  0  0  0  0  0  0  0  0  0
    1.7419   -2.6231    1.4525 H   0  0  0  0  0  0  0  0  0  0  0  0
   -3.0917   -1.6172   -1.1389 H   0  0  0  0  0  0  0  0  0  0  0  0
   -2.4636   -2.4756    1.7195 H   0  0  0  0  0  0  0  0  0  0  0  0
   -2.8909    3.5938    1.8197 H   0  0  0  0  0  0  0  0  0  0  0  0
   -2.7895    0.5458    2.1037 H   0  0  0  0  0  0  0  0  0  0  0  0
  1  6  1  0  0  0  0
  1  9  1  0  0  0  0
  1 10  1  0  0  0  0
  1 11  2  0  0  0  0
  2  8  1  0  0  0  0
  2 12  1  0  0  0  0
  2 13  1  0  0  0  0
  2 14  2  0  0  0  0
  3 17  1  0  0  0  0
  3 19  1  0  0  0  0
  4 15  1  0  0  0  0
  4 28  1  0  0  0  0
  5 16  1  0  0  0  0
  5 29  1  0  0  0  0
  6 19  1  0  0  0  0
  7 18  1  0  0  0  0
  7 30  1  0  0  0  0
  8 20  1  0  0  0  0
  9 31  1  0  0  0  0
 10 32  1  0  0  0  0
 12 33  1  0  0  0  0
 13 34  1  0  0  0  0
 15 16  1  0  0  0  0
 15 17  1  0  0  0  0
 15 21  1  0  0  0  0
 16 18  1  0  0  0  0
 16 22  1  0  0  0  0
 17 20  1  0  0  0  0
 17 23  1  0  0  0  0
 18 19  1  0  0  0  0
 18 24  1  0  0  0  0
 19 25  1  0  0  0  0
 20 26  1  0  0  0  0
 20 27  1  0  0  0  0
M  END
> <PUBCHEM_COMPOUND_CID>
737

> <PUBCHEM_CONFORMER_RMSD>
0.8

> <PUBCHEM_CONFORMER_DIVERSEORDER>
11
139
206
141
154
76
158
116
134
196
121
100
209
79
202
164
142
20
198
125
77
178
188
104
211
8
43
210
143
186
63
204
106
170
107
199
218
1
96
184
146
124
3
192
156
166
220
208
61
137
153
72
38
30
175
37
205
4
150
85
177
69
55
152
183
215
89
163
99
203
114
2
145
10
73
187
151
174
50
35
200
140
169
197
157
29
194
214
66
102
201
94
129
132
161
57
59
193
113
52
98
31
119
48
93
86
168
64
182
84
155
128
148
6
122
34
56
62
101
36
13
213
83
159
185
26
149
33
103
176
78
17
40
28
189
7
195
68
91
111
21
112
87
58
133
173
181
41
81
117
219
216
32
42
16
191
190
160
74
144
123
80
212
171
23
136
207
47
138
90
12
108
165
127
9
44
75
65
46
49
92
217
19
60
179
70
45
25
15
5
110
97
14
130
53
180
162
54
135
105
51
95
27
18
88
172
147
82
120
22
115
67
109
167
71
126
118
39
131
24

> <PUBCHEM_MMFF94_PARTIAL_CHARGES>
27
1 1.51
10 -0.77
11 -0.7
12 -0.77
13 -0.77
14 -0.7
15 0.28
16 0.28
17 0.28
18 0.28
19 0.56
2 1.51
20 0.28
28 0.4
29 0.4
3 -0.56
30 0.4
31 0.5
32 0.5
33 0.5
34 0.5
4 -0.68
5 -0.68
6 -0.55
7 -0.68
8 -0.55
9 -0.77

> <PUBCHEM_EFFECTIVE_ROTOR_COUNT>
6.2

> <PUBCHEM_PHARMACOPHORE_FEATURES>
16
1 10 acceptor
1 11 acceptor
1 12 acceptor
1 13 acceptor
1 14 acceptor
1 3 acceptor
1 4 acceptor
1 4 donor
1 5 acceptor
1 5 donor
1 7 acceptor
1 7 donor
1 9 acceptor
4 1 9 10 11 anion
4 2 12 13 14 anion
6 3 15 16 17 18 19 rings

> <PUBCHEM_HEAVY_ATOM_COUNT>
20

> <PUBCHEM_ATOM_DEF_STEREO_COUNT>
0

> <PUBCHEM_ATOM_UDEF_STEREO_COUNT>
5

> <PUBCHEM_BOND_DEF_STEREO_COUNT>
0

> <PUBCHEM_BOND_UDEF_STEREO_COUNT>
0

> <PUBCHEM_ISOTOPIC_ATOM_COUNT>
0

> <PUBCHEM_COMPONENT_COUNT>
1

> <PUBCHEM_CACTVS_TAUTO_COUNT>
1

> <PUBCHEM_CONFORMER_ID>
000002E10000000B

> <PUBCHEM_MMFF94_ENERGY>
-21.6007

> <PUBCHEM_FEATURE_SELFOVERLAP>
81.289

> <PUBCHEM_SHAPE_FINGERPRINT>
104564 63 18194128640170863092
12011746 2 18117843192254371804
12954195 1 18123773078076714196
14178342 30 17836364844084624505
14617773 55 18265329702182634988
16945 1 17982742071270566646
19591789 44 17906453221471529750
20645477 70 17973165028867442613
21041028 32 18045789145649018482
21731228 192 18339367335994031745
23419403 2 16535029382748186324
257057 1 17836364122498002247
2748010 2 18192738673106329967
394222 165 16015478356399468052
427121 178 17916871188369847537
568465 68 17547546212116092488
6438718 38 17845380006398350727
7364860 26 17548421401717811945
7471813 234 17552063426553005583
81228 2 18335974363475339646

> <PUBCHEM_SHAPE_MULTIPOLES>
348.86
5.04
4.29
1.22
0.97
2.25
-0.2
-2.5
-0.97
-3.48
0
-0.04
0.08
-1.16

> <PUBCHEM_SHAPE_SELFOVERLAP>
672.963

> <PUBCHEM_SHAPE_VOLUME>
212.9

> <PUBCHEM_COORDINATE_TYPE>
2
5
10

$$$$
