246
  -OEChem-08152602322D

 55 58  0     1  0  0  0  0  0999 V2000
    3.4022   -1.4701    0.0000 S   0  0  0  0  0  0  0  0  0  0  0  0
    4.2663   -1.9734    0.0000 O   0  0  0  0  0  0  0  0  0  0  0  0
   10.9163    2.3342    0.0000 O   0  0  0  0  0  0  0  0  0  0  0  0
    2.5381   -0.9667    0.0000 O   0  0  0  0  0  0  0  0  0  0  0  0
    2.8989   -2.3342    0.0000 O   0  0  0  0  0  0  0  0  0  0  0  0
    3.9056   -0.6060    0.0000 O   0  0  0  0  0  0  0  0  0  0  0  0
    7.9273    0.0789    0.0000 C   0  0  3  0  0  0  0  0  0  0  0  0
    7.0173   -0.4279    0.0000 C   0  0  3  0  0  0  0  0  0  0  0  0
    8.7934   -0.4211    0.0000 C   0  0  3  0  0  0  0  0  0  0  0  0
    9.6594    0.0789    0.0000 C   0  0  3  0  0  0  0  0  0  0  0  0
    7.0093   -1.4695    0.0000 C   0  0  3  0  0  0  0  0  0  0  0  0
    9.6594    1.0789    0.0000 C   0  0  3  0  0  0  0  0  0  0  0  0
    7.9273    1.0789    0.0000 C   0  0  0  0  0  0  0  0  0  0  0  0
    8.8094   -1.4626    0.0000 C   0  0  0  0  0  0  0  0  0  0  0  0
    7.9114   -1.9903    0.0000 C   0  0  0  0  0  0  0  0  0  0  0  0
    8.7934    1.5789    0.0000 C   0  0  0  0  0  0  0  0  0  0  0  0
    6.0905    0.1362    0.0000 C   0  0  0  0  0  0  0  0  0  0  0  0
   10.6056   -0.2258    0.0000 C   0  0  0  0  0  0  0  0  0  0  0  0
    6.0739   -2.0193    0.0000 C   0  0  0  0  0  0  0  0  0  0  0  0
    7.0251    0.5720    0.0000 C   0  0  0  0  0  0  0  0  0  0  0  0
   10.6056    1.3837    0.0000 C   0  0  0  0  0  0  0  0  0  0  0  0
    5.1426   -0.3918    0.0000 C   0  0  0  0  0  0  0  0  0  0  0  0
   11.1892    0.5789    0.0000 C   0  0  0  0  0  0  0  0  0  0  0  0
    5.1343   -1.4768    0.0000 C   0  0  3  0  0  0  0  0  0  0  0  0
    9.6594    2.0789    0.0000 C   0  0  0  0  0  0  0  0  0  0  0  0
    8.4643    0.3889    0.0000 H   0  0  0  0  0  0  0  0  0  0  0  0
    9.3327   -0.7269    0.0000 H   0  0  0  0  0  0  0  0  0  0  0  0
    9.7250   -0.5376    0.0000 H   0  0  0  0  0  0  0  0  0  0  0  0
    7.0117   -2.0895    0.0000 H   0  0  0  0  0  0  0  0  0  0  0  0
    7.7153    1.6615    0.0000 H   0  0  0  0  0  0  0  0  0  0  0  0
    7.3168    0.9713    0.0000 H   0  0  0  0  0  0  0  0  0  0  0  0
    9.0275   -2.0430    0.0000 H   0  0  0  0  0  0  0  0  0  0  0  0
    9.4186   -1.3471    0.0000 H   0  0  0  0  0  0  0  0  0  0  0  0
    7.5141   -2.4663    0.0000 H   0  0  0  0  0  0  0  0  0  0  0  0
    8.3124   -2.4632    0.0000 H   0  0  0  0  0  0  0  0  0  0  0  0
    9.1919    2.0539    0.0000 H   0  0  0  0  0  0  0  0  0  0  0  0
    8.3948    2.0539    0.0000 H   0  0  0  0  0  0  0  0  0  0  0  0
    6.4987    0.6028    0.0000 H   0  0  0  0  0  0  0  0  0  0  0  0
    5.7006    0.6182    0.0000 H   0  0  0  0  0  0  0  0  0  0  0  0
   10.3546   -0.7927    0.0000 H   0  0  0  0  0  0  0  0  0  0  0  0
   11.1430   -0.5350    0.0000 H   0  0  0  0  0  0  0  0  0  0  0  0
    5.6766   -2.4952    0.0000 H   0  0  0  0  0  0  0  0  0  0  0  0
    6.4749   -2.4922    0.0000 H   0  0  0  0  0  0  0  0  0  0  0  0
    7.6450    0.5673    0.0000 H   0  0  0  0  0  0  0  0  0  0  0  0
    7.0298    1.1920    0.0000 H   0  0  0  0  0  0  0  0  0  0  0  0
    6.4051    0.5768    0.0000 H   0  0  0  0  0  0  0  0  0  0  0  0
    4.9381    0.1935    0.0000 H   0  0  0  0  0  0  0  0  0  0  0  0
    4.5310   -0.4932    0.0000 H   0  0  0  0  0  0  0  0  0  0  0  0
   11.6501    0.1642    0.0000 H   0  0  0  0  0  0  0  0  0  0  0  0
   11.6501    0.9936    0.0000 H   0  0  0  0  0  0  0  0  0  0  0  0
    4.5991   -1.1637    0.0000 H   0  0  0  0  0  0  0  0  0  0  0  0
   10.2794    2.0789    0.0000 H   0  0  0  0  0  0  0  0  0  0  0  0
    9.6594    2.6989    0.0000 H   0  0  0  0  0  0  0  0  0  0  0  0
    9.0394    2.0789    0.0000 H   0  0  0  0  0  0  0  0  0  0  0  0
    2.0000   -1.2747    0.0000 H   0  0  0  0  0  0  0  0  0  0  0  0
  1  2  1  0  0  0  0
  1  4  1  0  0  0  0
  1  5  2  0  0  0  0
  1  6  2  0  0  0  0
  2 24  1  0  0  0  0
  3 21  2  0  0  0  0
  4 55  1  0  0  0  0
  7  8  1  0  0  0  0
  7  9  1  0  0  0  0
  7 13  1  0  0  0  0
  7 26  1  0  0  0  0
  8 11  1  0  0  0  0
  8 17  1  0  0  0  0
  8 20  1  0  0  0  0
  9 10  1  0  0  0  0
  9 14  1  0  0  0  0
  9 27  1  0  0  0  0
 10 12  1  0  0  0  0
 10 18  1  0  0  0  0
 10 28  1  0  0  0  0
 11 15  1  0  0  0  0
 11 19  1  0  0  0  0
 11 29  1  0  0  0  0
 12 16  1  0  0  0  0
 12 21  1  0  0  0  0
 12 25  1  0  0  0  0
 13 16  1  0  0  0  0
 13 30  1  0  0  0  0
 13 31  1  0  0  0  0
 14 15  1  0  0  0  0
 14 32  1  0  0  0  0
 14 33  1  0  0  0  0
 15 34  1  0  0  0  0
 15 35  1  0  0  0  0
 16 36  1  0  0  0  0
 16 37  1  0  0  0  0
 17 22  1  0  0  0  0
 17 38  1  0  0  0  0
 17 39  1  0  0  0  0
 18 23  1  0  0  0  0
 18 40  1  0  0  0  0
 18 41  1  0  0  0  0
 19 24  1  0  0  0  0
 19 42  1  0  0  0  0
 19 43  1  0  0  0  0
 20 44  1  0  0  0  0
 20 45  1  0  0  0  0
 20 46  1  0  0  0  0
 21 23  1  0  0  0  0
 22 24  1  0  0  0  0
 22 47  1  0  0  0  0
 22 48  1  0  0  0  0
 23 49  1  0  0  0  0
 23 50  1  0  0  0  0
 24 51  1  0  0  0  0
 25 52  1  0  0  0  0
 25 53  1  0  0  0  0
 25 54  1  0  0  0  0
M  END
> <PUBCHEM_COMPOUND_CID>
246

> <PUBCHEM_COMPOUND_CANONICALIZED>
1

> <PUBCHEM_CACTVS_COMPLEXITY>
668

> <PUBCHEM_CACTVS_HBOND_ACCEPTOR>
5

> <PUBCHEM_CACTVS_HBOND_DONOR>
1

> <PUBCHEM_CACTVS_ROTATABLE_BOND>
2

> <PUBCHEM_CACTVS_SUBSKEYS>
AAADceB4OABAAAAAAAAAAAAAAAAAAYAAAAAwYMAAAAAAAGDAAAAAGgAACAAADxSggAICAAAAAIAIAIAQADAAAAAAAAAAAAEAAAAAABIAAAAAAAAEAAAAAAGIyPCPgAAAAAAAAADAAAYAACAAAAAACAAAAA==

> <PUBCHEM_IUPAC_OPENEYE_NAME>
(10,13-dimethyl-17-oxo-1,2,3,4,5,6,7,8,9,11,12,14,15,16-tetradecahydrocyclopenta[a]phenanthren-3-yl) hydrogen sulfate

> <PUBCHEM_IUPAC_CAS_NAME>
sulfuric acid (10,13-dimethyl-17-oxo-1,2,3,4,5,6,7,8,9,11,12,14,15,16-tetradecahydrocyclopenta[a]phenanthren-3-yl) ester

> <PUBCHEM_IUPAC_NAME_MARKUP>
(10,13-dimethyl-17-oxo-1,2,3,4,5,6,7,8,9,11,12,14,15,16-tetradecahydrocyclopenta[a]phenanthren-3-yl) hydrogen sulfate

> <PUBCHEM_IUPAC_NAME>
(10,13-dimethyl-17-oxo-1,2,3,4,5,6,7,8,9,11,12,14,15,16-tetradecahydrocyclopenta[a]phenanthren-3-yl) hydrogen sulfate

> <PUBCHEM_IUPAC_SYSTEMATIC_NAME>
(10,13-dimethyl-17-oxidanylidene-1,2,3,4,5,6,7,8,9,11,12,14,15,16-tetradecahydrocyclopenta[a]phenanthren-3-yl) hydrogen sulfate

> <PUBCHEM_IUPAC_TRADITIONAL_NAME>
sulfuric acid (17-keto-10,13-dimethyl-1,2,3,4,5,6,7,8,9,11,12,14,15,16-tetradecahydrocyclopenta[a]phenanthren-3-yl) ester

> <PUBCHEM_IUPAC_INCHI>
InChI=1S/C19H30O5S/c1-18-9-7-13(24-25(21,22)23)11-12(18)3-4-14-15-5-6-17(20)19(15,2)10-8-16(14)18/h12-16H,3-11H2,1-2H3,(H,21,22,23)

> <PUBCHEM_IUPAC_INCHIKEY>
ZMITXKRGXGRMKS-UHFFFAOYSA-N

> <PUBCHEM_XLOGP3>
3.3

> <PUBCHEM_EXACT_MASS>
370.18139523

> <PUBCHEM_MOLECULAR_FORMULA>
C19H30O5S

> <PUBCHEM_MOLECULAR_WEIGHT>
370.5

> <PUBCHEM_SMILES>
CC12CCC(CC1CCC3C2CCC4(C3CCC4=O)C)OS(=O)(=O)O

> <PUBCHEM_CONNECTIVITY_SMILES>
CC12CCC(CC1CCC3C2CCC4(C3CCC4=O)C)OS(=O)(=O)O

> <PUBCHEM_CACTVS_TPSA>
89.1

> <PUBCHEM_MONOISOTOPIC_WEIGHT>
370.18139523

> <PUBCHEM_TOTAL_CHARGE>
0

> <PUBCHEM_HEAVY_ATOM_COUNT>
25

> <PUBCHEM_ATOM_DEF_STEREO_COUNT>
0

> <PUBCHEM_ATOM_UDEF_STEREO_COUNT>
7

> <PUBCHEM_BOND_DEF_STEREO_COUNT>
0

> <PUBCHEM_BOND_UDEF_STEREO_COUNT>
0

> <PUBCHEM_ISOTOPIC_ATOM_COUNT>
0

> <PUBCHEM_COMPONENT_COUNT>
1

> <PUBCHEM_CACTVS_TAUTO_COUNT>
-1

> <PUBCHEM_COORDINATE_TYPE>
1
5
255

> <PUBCHEM_BONDANNOTATIONS>
10  18  3
11  15  3
12  25  3
24  2  3
7  13  3
8  20  3
9  14  3

$$$$
