577
  -OEChem-08152602582D

 47 48  0     1  0  0  0  0  0999 V2000
    6.0010   -0.5000    0.0000 O   0  0  0  0  0  0  0  0  0  0  0  0
    4.2690   -0.5000    0.0000 O   0  0  0  0  0  0  0  0  0  0  0  0
    7.7331    0.5000    0.0000 O   0  0  0  0  0  0  0  0  0  0  0  0
    4.2690    0.5000    0.0000 O   0  0  0  0  0  0  0  0  0  0  0  0
    7.7331    2.5000    0.0000 O   0  0  0  0  0  0  0  0  0  0  0  0
    4.2690    2.5000    0.0000 O   0  0  0  0  0  0  0  0  0  0  0  0
    6.0010    3.5000    0.0000 O   0  0  0  0  0  0  0  0  0  0  0  0
    4.2690   -3.5000    0.0000 O   0  0  0  0  0  0  0  0  0  0  0  0
    2.5369   -2.5000    0.0000 O   0  0  0  0  0  0  0  0  0  0  0  0
    2.5369    0.5000    0.0000 O   0  0  0  0  0  0  0  0  0  0  0  0
    6.0010   -2.5000    0.0000 N   0  3  0  0  0  0  0  0  0  0  0  0
    6.0010    0.5000    0.0000 C   0  0  0  0  0  0  0  0  0  0  0  0
    6.8671    1.0000    0.0000 C   0  0  3  0  0  0  0  0  0  0  0  0
    5.1350    1.0000    0.0000 C   0  0  3  0  0  0  0  0  0  0  0  0
    5.1350   -2.0000    0.0000 C   0  0  3  0  0  0  0  0  0  0  0  0
    5.1350   -1.0000    0.0000 C   0  0  3  0  0  0  0  0  0  0  0  0
    6.8671    2.0000    0.0000 C   0  0  3  0  0  0  0  0  0  0  0  0
    5.1350    2.0000    0.0000 C   0  0  3  0  0  0  0  0  0  0  0  0
    6.0010    2.5000    0.0000 C   0  0  0  0  0  0  0  0  0  0  0  0
    4.2690   -2.5000    0.0000 C   0  0  3  0  0  0  0  0  0  0  0  0
    3.4030   -2.0000    0.0000 C   0  0  3  0  0  0  0  0  0  0  0  0
    3.4030   -1.0000    0.0000 C   0  0  3  0  0  0  0  0  0  0  0  0
    2.5369   -0.5000    0.0000 C   0  0  0  0  0  0  0  0  0  0  0  0
    6.5380    0.1900    0.0000 H   0  0  0  0  0  0  0  0  0  0  0  0
    7.4040    1.3100    0.0000 H   0  0  0  0  0  0  0  0  0  0  0  0
    5.1350    0.3800    0.0000 H   0  0  0  0  0  0  0  0  0  0  0  0
    5.6720   -1.6900    0.0000 H   0  0  0  0  0  0  0  0  0  0  0  0
    5.1350   -0.3800    0.0000 H   0  0  0  0  0  0  0  0  0  0  0  0
    6.8671    2.6200    0.0000 H   0  0  0  0  0  0  0  0  0  0  0  0
    5.1350    2.6200    0.0000 H   0  0  0  0  0  0  0  0  0  0  0  0
    5.4641    2.8100    0.0000 H   0  0  0  0  0  0  0  0  0  0  0  0
    4.8059   -2.8100    0.0000 H   0  0  0  0  0  0  0  0  0  0  0  0
    3.4030   -2.6200    0.0000 H   0  0  0  0  0  0  0  0  0  0  0  0
    3.4030   -0.3800    0.0000 H   0  0  0  0  0  0  0  0  0  0  0  0
    6.5380   -2.8100    0.0000 H   0  0  0  0  0  0  0  0  0  0  0  0
    5.6910   -3.0369    0.0000 H   0  0  0  0  0  0  0  0  0  0  0  0
    6.3110   -1.9631    0.0000 H   0  0  0  0  0  0  0  0  0  0  0  0
    1.9264   -0.3923    0.0000 H   0  0  0  0  0  0  0  0  0  0  0  0
    2.3249   -1.0826    0.0000 H   0  0  0  0  0  0  0  0  0  0  0  0
    8.2700    0.8100    0.0000 H   0  0  0  0  0  0  0  0  0  0  0  0
    3.7320    0.8100    0.0000 H   0  0  0  0  0  0  0  0  0  0  0  0
    7.7331    3.1200    0.0000 H   0  0  0  0  0  0  0  0  0  0  0  0
    4.2690    3.1200    0.0000 H   0  0  0  0  0  0  0  0  0  0  0  0
    6.5380    3.8100    0.0000 H   0  0  0  0  0  0  0  0  0  0  0  0
    3.7320   -3.8100    0.0000 H   0  0  0  0  0  0  0  0  0  0  0  0
    2.0000   -2.1900    0.0000 H   0  0  0  0  0  0  0  0  0  0  0  0
    2.0000    0.8100    0.0000 H   0  0  0  0  0  0  0  0  0  0  0  0
  1 12  1  0  0  0  0
  1 16  1  0  0  0  0
  2 16  1  0  0  0  0
  2 22  1  0  0  0  0
  3 13  1  0  0  0  0
  3 40  1  0  0  0  0
  4 14  1  0  0  0  0
  4 41  1  0  0  0  0
  5 17  1  0  0  0  0
  5 42  1  0  0  0  0
  6 18  1  0  0  0  0
  6 43  1  0  0  0  0
  7 19  1  0  0  0  0
  7 44  1  0  0  0  0
  8 20  1  0  0  0  0
  8 45  1  0  0  0  0
  9 21  1  0  0  0  0
  9 46  1  0  0  0  0
 10 23  1  0  0  0  0
 10 47  1  0  0  0  0
 11 15  1  0  0  0  0
 11 35  1  0  0  0  0
 11 36  1  0  0  0  0
 11 37  1  0  0  0  0
 12 13  1  0  0  0  0
 12 14  1  0  0  0  0
 12 24  1  0  0  0  0
 13 17  1  0  0  0  0
 13 25  1  0  0  0  0
 14 18  1  0  0  0  0
 14 26  1  0  0  0  0
 15 16  1  0  0  0  0
 15 20  1  0  0  0  0
 15 27  1  0  0  0  0
 16 28  1  0  0  0  0
 17 19  1  0  0  0  0
 17 29  1  0  0  0  0
 18 19  1  0  0  0  0
 18 30  1  0  0  0  0
 19 31  1  0  0  0  0
 20 21  1  0  0  0  0
 20 32  1  0  0  0  0
 21 22  1  0  0  0  0
 21 33  1  0  0  0  0
 22 23  1  0  0  0  0
 22 34  1  0  0  0  0
 23 38  1  0  0  0  0
 23 39  1  0  0  0  0
M  CHG  1  11   1
M  END
> <PUBCHEM_COMPOUND_CID>
577

> <PUBCHEM_COMPOUND_CANONICALIZED>
1

> <PUBCHEM_CACTVS_COMPLEXITY>
384

> <PUBCHEM_CACTVS_HBOND_ACCEPTOR>
10

> <PUBCHEM_CACTVS_HBOND_DONOR>
9

> <PUBCHEM_CACTVS_ROTATABLE_BOND>
3

> <PUBCHEM_CACTVS_SUBSKEYS>
AAADceByPAAAAAAAAAAAAAAAAAAAAAAAAAA0QAAAAAAAAAAAAAAAHgAQCAAACDzxgAcACABABgAAAAAAAAAAAAAAAAAAAIAAAAATEAIAgAAjQAAHEAAHAAHwcA0AAAAAAAAAAAACAAAQAACAAAAAAAAAAA==

> <PUBCHEM_IUPAC_OPENEYE_NAME>
[4,5-dihydroxy-6-(hydroxymethyl)-2-(2,3,4,5,6-pentahydroxycyclohexoxy)tetrahydropyran-3-yl]ammonium

> <PUBCHEM_IUPAC_CAS_NAME>
[4,5-dihydroxy-6-(hydroxymethyl)-2-(2,3,4,5,6-pentahydroxycyclohexyl)oxy-3-oxanyl]ammonium

> <PUBCHEM_IUPAC_NAME_MARKUP>
[4,5-dihydroxy-6-(hydroxymethyl)-2-(2,3,4,5,6-pentahydroxycyclohexyl)oxyoxan-3-yl]azanium

> <PUBCHEM_IUPAC_NAME>
[4,5-dihydroxy-6-(hydroxymethyl)-2-(2,3,4,5,6-pentahydroxycyclohexyl)oxyoxan-3-yl]azanium

> <PUBCHEM_IUPAC_SYSTEMATIC_NAME>
[6-(hydroxymethyl)-4,5-bis(oxidanyl)-2-[2,3,4,5,6-pentakis(oxidanyl)cyclohexyl]oxy-oxan-3-yl]azanium

> <PUBCHEM_IUPAC_TRADITIONAL_NAME>
[4,5-dihydroxy-6-methylol-2-(2,3,4,5,6-pentahydroxycyclohexoxy)tetrahydropyran-3-yl]ammonium

> <PUBCHEM_IUPAC_INCHI>
InChI=1S/C12H23NO10/c13-3-5(16)4(15)2(1-14)22-12(3)23-11-9(20)7(18)6(17)8(19)10(11)21/h2-12,14-21H,1,13H2/p+1

> <PUBCHEM_IUPAC_INCHIKEY>
HEPUIGACZYVUCD-UHFFFAOYSA-O

> <PUBCHEM_XLOGP3_AA>
-5.6

> <PUBCHEM_EXACT_MASS>
342.14002096

> <PUBCHEM_MOLECULAR_FORMULA>
C12H24NO10+

> <PUBCHEM_MOLECULAR_WEIGHT>
342.32

> <PUBCHEM_SMILES>
C(C1C(C(C(C(O1)OC2C(C(C(C(C2O)O)O)O)O)[NH3+])O)O)O

> <PUBCHEM_CONNECTIVITY_SMILES>
C(C1C(C(C(C(O1)OC2C(C(C(C(C2O)O)O)O)O)[NH3+])O)O)O

> <PUBCHEM_CACTVS_TPSA>
208

> <PUBCHEM_MONOISOTOPIC_WEIGHT>
342.14002096

> <PUBCHEM_TOTAL_CHARGE>
1

> <PUBCHEM_HEAVY_ATOM_COUNT>
23

> <PUBCHEM_ATOM_DEF_STEREO_COUNT>
0

> <PUBCHEM_ATOM_UDEF_STEREO_COUNT>
9

> <PUBCHEM_BOND_DEF_STEREO_COUNT>
0

> <PUBCHEM_BOND_UDEF_STEREO_COUNT>
0

> <PUBCHEM_ISOTOPIC_ATOM_COUNT>
0

> <PUBCHEM_COMPONENT_COUNT>
1

> <PUBCHEM_CACTVS_TAUTO_COUNT>
-1

> <PUBCHEM_COORDINATE_TYPE>
1
5
255

> <PUBCHEM_BONDANNOTATIONS>
16  1  3
15  11  3
22  23  3
13  3  3
14  4  3
17  5  3
18  6  3
20  8  3
21  9  3

$$$$
