212
  -OEChem-08152602303D

 43 45  0     1  0  0  0  0  0999 V2000
    4.9117    1.4256   -0.0138 P   0  0  0  0  0  0  0  0  0  0  0  0
    1.2815   -0.6784    0.9980 O   0  0  0  0  0  0  0  0  0  0  0  0
   -0.6024   -2.7412   -1.2639 O   0  0  0  0  0  0  0  0  0  0  0  0
    1.3199   -3.6715    0.4167 O   0  0  0  0  0  0  0  0  0  0  0  0
    3.8567    0.3468    0.5735 O   0  0  0  0  0  0  0  0  0  0  0  0
    6.1904    0.5261   -0.4273 O   0  0  0  0  0  0  0  0  0  0  0  0
    5.4148    2.1990    1.3143 O   0  0  0  0  0  0  0  0  0  0  0  0
    4.3735    2.3126   -1.0982 O   0  0  0  0  0  0  0  0  0  0  0  0
   -0.7586    0.1308    0.0963 N   0  0  0  0  0  0  0  0  0  0  0  0
   -1.2252    2.2454   -0.4177 N   0  0  0  0  0  0  0  0  0  0  0  0
    0.0422   -1.0601    0.3706 C   0  0  1  0  0  0  0  0  0  0  0  0
    0.4226   -1.8511   -0.8717 C   0  0  1  0  0  0  0  0  0  0  0  0
    1.6784   -2.5604   -0.4048 C   0  0  1  0  0  0  0  0  0  0  0  0
    2.3461   -1.5004    0.4656 C   0  0  1  0  0  0  0  0  0  0  0  0
    3.2988   -0.6056   -0.3148 C   0  0  0  0  0  0  0  0  0  0  0  0
   -2.1286    0.2223    0.1153 C   0  0  0  0  0  0  0  0  0  0  0  0
   -0.2665    1.3666   -0.2275 C   0  0  0  0  0  0  0  0  0  0  0  0
   -2.3938    1.5499   -0.2083 C   0  0  0  0  0  0  0  0  0  0  0  0
   -3.1264   -0.7162    0.3803 C   0  0  0  0  0  0  0  0  0  0  0  0
   -4.4489   -0.2661    0.3084 C   0  0  0  0  0  0  0  0  0  0  0  0
   -3.7281    1.9848   -0.2761 C   0  0  0  0  0  0  0  0  0  0  0  0
   -4.7466    1.0600   -0.0138 C   0  0  0  0  0  0  0  0  0  0  0  0
   -5.5457   -1.2442    0.5858 C   0  0  0  0  0  0  0  0  0  0  0  0
   -6.1658    1.5253   -0.0871 C   0  0  0  0  0  0  0  0  0  0  0  0
   -0.5181   -1.6642    1.0939 H   0  0  0  0  0  0  0  0  0  0  0  0
    0.6507   -1.1864   -1.7129 H   0  0  0  0  0  0  0  0  0  0  0  0
    2.2960   -2.9361   -1.2256 H   0  0  0  0  0  0  0  0  0  0  0  0
    2.8660   -1.9356    1.3266 H   0  0  0  0  0  0  0  0  0  0  0  0
    2.7733   -0.0632   -1.1073 H   0  0  0  0  0  0  0  0  0  0  0  0
    4.1036   -1.1983   -0.7611 H   0  0  0  0  0  0  0  0  0  0  0  0
   -0.7653   -3.3555   -0.5281 H   0  0  0  0  0  0  0  0  0  0  0  0
    0.7919    1.5708   -0.3160 H   0  0  0  0  0  0  0  0  0  0  0  0
    2.1455   -4.0740    0.7361 H   0  0  0  0  0  0  0  0  0  0  0  0
   -2.8844   -1.7440    0.6276 H   0  0  0  0  0  0  0  0  0  0  0  0
   -3.9512    3.0171   -0.5273 H   0  0  0  0  0  0  0  0  0  0  0  0
   -6.1944   -1.3552   -0.2892 H   0  0  0  0  0  0  0  0  0  0  0  0
   -5.1521   -2.2390    0.8227 H   0  0  0  0  0  0  0  0  0  0  0  0
   -6.1426   -0.9217    1.4450 H   0  0  0  0  0  0  0  0  0  0  0  0
   -6.7152    0.9695   -0.8538 H   0  0  0  0  0  0  0  0  0  0  0  0
   -6.6629    1.4023    0.8806 H   0  0  0  0  0  0  0  0  0  0  0  0
   -6.2317    2.5870   -0.3499 H   0  0  0  0  0  0  0  0  0  0  0  0
    6.9466    0.9563   -0.8801 H   0  0  0  0  0  0  0  0  0  0  0  0
    6.0032    2.9777    1.2157 H   0  0  0  0  0  0  0  0  0  0  0  0
  1  5  1  0  0  0  0
  1  6  1  0  0  0  0
  1  7  1  0  0  0  0
  1  8  2  0  0  0  0
  2 11  1  0  0  0  0
  2 14  1  0  0  0  0
  3 12  1  0  0  0  0
  3 31  1  0  0  0  0
  4 13  1  0  0  0  0
  4 33  1  0  0  0  0
  5 15  1  0  0  0  0
  6 42  1  0  0  0  0
  7 43  1  0  0  0  0
  9 11  1  0  0  0  0
  9 16  1  0  0  0  0
  9 17  1  0  0  0  0
 10 17  2  0  0  0  0
 10 18  1  0  0  0  0
 11 12  1  0  0  0  0
 11 25  1  0  0  0  0
 12 13  1  0  0  0  0
 12 26  1  0  0  0  0
 13 14  1  0  0  0  0
 13 27  1  0  0  0  0
 14 15  1  0  0  0  0
 14 28  1  0  0  0  0
 15 29  1  0  0  0  0
 15 30  1  0  0  0  0
 16 18  2  0  0  0  0
 16 19  1  0  0  0  0
 17 32  1  0  0  0  0
 18 21  1  0  0  0  0
 19 20  2  0  0  0  0
 19 34  1  0  0  0  0
 20 22  1  0  0  0  0
 20 23  1  0  0  0  0
 21 22  2  0  0  0  0
 21 35  1  0  0  0  0
 22 24  1  0  0  0  0
 23 36  1  0  0  0  0
 23 37  1  0  0  0  0
 23 38  1  0  0  0  0
 24 39  1  0  0  0  0
 24 40  1  0  0  0  0
 24 41  1  0  0  0  0
M  END
> <PUBCHEM_COMPOUND_CID>
212

> <PUBCHEM_CONFORMER_RMSD>
0.8

> <PUBCHEM_CONFORMER_DIVERSEORDER>
67
195
191
167
83
125
151
122
20
150
70
189
154
77
114
209
172
139
30
158
101
14
112
52
110
137
178
131
184
119
85
157
208
36
69
198
100
134
24
63
182
206
173
143
186
183
18
74
61
199
165
45
170
214
121
22
111
76
129
12
10
113
197
94
138
91
38
193
148
177
64
25
200
84
108
176
7
80
123
82
5
161
149
2
59
28
179
207
97
215
202
56
86
201
155
107
75
32
187
160
90
135
15
102
152
196
146
93
133
92
194
163
162
46
42
185
212
118
4
73
44
205
16
147
211
41
156
26
145
124
19
65
89
1
35
127
153
159
213
109
203
120
58
174
180
192
47
126
57
53
33
105
87
6
40
37
117
142
3
144
27
49
72
103
104
88
48
29
136
78
140
168
68
60
21
96
204
210
66
166
62
106
13
8
181
171
11
95
55
188
99
79
141
128
17
169
116
130
9
54
175
51
50
98
39
164
115
71
43
31
190
23
81
132
34

> <PUBCHEM_MMFF94_PARTIAL_CHARGES>
31
1 1.51
10 -0.57
11 0.54
12 0.28
13 0.28
14 0.28
15 0.28
16 -0.15
17 0.04
18 0.23
19 -0.15
2 -0.56
20 -0.14
21 -0.15
22 -0.14
23 0.14
24 0.14
3 -0.68
31 0.4
32 0.15
33 0.4
34 0.15
35 0.15
4 -0.68
42 0.5
43 0.5
5 -0.55
6 -0.77
7 -0.77
8 -0.7
9 0.05

> <PUBCHEM_EFFECTIVE_ROTOR_COUNT>
5

> <PUBCHEM_PHARMACOPHORE_FEATURES>
13
1 2 acceptor
1 3 acceptor
1 3 donor
1 4 acceptor
1 4 donor
1 6 acceptor
1 7 acceptor
1 8 acceptor
3 9 10 17 cation
4 1 6 7 8 anion
5 2 11 12 13 14 rings
5 9 10 16 17 18 rings
6 16 18 19 20 21 22 rings

> <PUBCHEM_HEAVY_ATOM_COUNT>
24

> <PUBCHEM_ATOM_DEF_STEREO_COUNT>
0

> <PUBCHEM_ATOM_UDEF_STEREO_COUNT>
4

> <PUBCHEM_BOND_DEF_STEREO_COUNT>
0

> <PUBCHEM_BOND_UDEF_STEREO_COUNT>
0

> <PUBCHEM_ISOTOPIC_ATOM_COUNT>
0

> <PUBCHEM_COMPONENT_COUNT>
1

> <PUBCHEM_CACTVS_TAUTO_COUNT>
1

> <PUBCHEM_CONFORMER_ID>
000000D400000043

> <PUBCHEM_MMFF94_ENERGY>
22.172

> <PUBCHEM_FEATURE_SELFOVERLAP>
66.128

> <PUBCHEM_SHAPE_FINGERPRINT>
10074138 170 17975394013719822346
10090160 65 18259982695073685991
10493431 412 18341045328329984472
10835480 77 18262231107034193173
10906281 52 18261691311011684761
11488393 25 17630062467926705094
11578080 2 16517070836204353861
12403259 118 18262785277514779000
13583140 156 17242708923823400634
14341114 328 17603581950263134040
14528608 73 18341892987080372581
1454969 45 18339921627821151919
146900 427 18272375252212871609
14787075 74 18335420201067204123
14790565 3 18339365261440912193
15183329 4 11167949047511934321
15196674 1 18409167680020748699
15927050 60 17547297056410380308
15961568 22 18186524280351816668
17349148 13 12540701388127877621
17980427 23 17894638079972353125
19591789 44 18195246856592560353
19784866 170 18408887334551930187
22620623 9 16844155947484924358
23227448 37 18198902698658752668
23559900 14 17977379439292491555
239999 70 18199472069261786134
345986 75 9150904827818175932
34797466 226 17917716773226161405
34934 24 18409444761578445743
350125 39 18337953394680729426
4325135 7 18333169479337672437
474 4 18260553316292268156
474229 33 18409168843698559451
5104073 3 18262242101833362657
6442390 28 18411698811765336994
6669772 16 17988931046446865558
67856867 119 18262512572771973266
7808743 9 18268141136467188680
9709674 26 17908987600332303775

> <PUBCHEM_SHAPE_MULTIPOLES>
446.71
12.98
3.19
0.89
1.73
1.46
0.01
-8.05
-1.19
1.88
0.39
0.51
0.06
0.56

> <PUBCHEM_SHAPE_SELFOVERLAP>
943.093

> <PUBCHEM_SHAPE_VOLUME>
255

> <PUBCHEM_COORDINATE_TYPE>
2
5
10

$$$$
