1077
  -OEChem-08152603413D

 47 49  0     1  0  0  0  0  0999 V2000
   -1.9977   -1.1063   -1.5976 S   0  3  2  0  0  0  0  0  0  0  0  0
    1.0135   -1.3348   -0.8738 O   0  0  0  0  0  0  0  0  0  0  0  0
    0.2709   -3.1939    2.1030 O   0  0  0  0  0  0  0  0  0  0  0  0
    3.2027   -3.3492    1.0906 O   0  0  0  0  0  0  0  0  0  0  0  0
   -4.8091    0.5954    1.6952 O   0  0  0  0  0  0  0  0  0  0  0  0
   -6.8919    1.9513    1.2592 O   0  0  0  0  0  0  0  0  0  0  0  0
   -6.6233    1.6945   -1.0050 O   0  0  0  0  0  0  0  0  0  0  0  0
    3.1629   -0.4669   -0.4006 N   0  0  0  0  0  0  0  0  0  0  0  0
    4.9692    0.8313   -0.5631 N   0  0  0  0  0  0  0  0  0  0  0  0
    1.5100    1.1982    0.2295 N   0  0  0  0  0  0  0  0  0  0  0  0
    2.5066    3.4200    0.3930 N   0  0  0  0  0  0  0  0  0  0  0  0
    4.8271    3.8217   -0.0320 N   0  0  0  0  0  0  0  0  0  0  0  0
    0.0696   -1.8970    0.0536 C   0  0  2  0  0  0  0  0  0  0  0  0
    0.8242   -2.9707    0.8202 C   0  0  1  0  0  0  0  0  0  0  0  0
    2.2040   -2.3582    0.9239 C   0  0  2  0  0  0  0  0  0  0  0  0
    2.3415   -1.6753   -0.4309 C   0  0  1  0  0  0  0  0  0  0  0  0
   -1.1315   -2.4305   -0.7064 C   0  0  0  0  0  0  0  0  0  0  0  0
    2.7480    0.7999   -0.0995 C   0  0  0  0  0  0  0  0  0  0  0  0
   -2.9685   -0.5221   -0.1897 C   0  0  0  0  0  0  0  0  0  0  0  0
    4.5045   -0.3959   -0.6713 C   0  0  0  0  0  0  0  0  0  0  0  0
   -3.2821   -2.1567   -2.3139 C   0  0  0  0  0  0  0  0  0  0  0  0
    3.8821    1.5890   -0.2063 C   0  0  0  0  0  0  0  0  0  0  0  0
   -4.2259    0.2052   -0.6440 C   0  0  0  0  0  0  0  0  0  0  0  0
    3.7302    2.9471    0.0542 C   0  0  0  0  0  0  0  0  0  0  0  0
   -5.0510    0.7398    0.5062 C   0  0  0  0  0  0  0  0  0  0  0  0
    1.4876    2.5293    0.4586 C   0  0  0  0  0  0  0  0  0  0  0  0
   -6.2738    1.5346    0.1468 C   0  0  0  0  0  0  0  0  0  0  0  0
   -0.2433   -1.0975    0.7371 H   0  0  0  0  0  0  0  0  0  0  0  0
    0.8522   -3.9237    0.2782 H   0  0  0  0  0  0  0  0  0  0  0  0
    2.2734   -1.6534    1.7613 H   0  0  0  0  0  0  0  0  0  0  0  0
    2.7834   -2.3382   -1.1850 H   0  0  0  0  0  0  0  0  0  0  0  0
   -0.7908   -3.1339   -1.4752 H   0  0  0  0  0  0  0  0  0  0  0  0
   -1.8207   -2.9635   -0.0444 H   0  0  0  0  0  0  0  0  0  0  0  0
    0.8502   -3.8217    2.5672 H   0  0  0  0  0  0  0  0  0  0  0  0
    3.0148   -3.8165    1.9222 H   0  0  0  0  0  0  0  0  0  0  0  0
   -2.3324    0.1451    0.4016 H   0  0  0  0  0  0  0  0  0  0  0  0
   -3.2496   -1.3621    0.4544 H   0  0  0  0  0  0  0  0  0  0  0  0
    5.0870   -1.2670   -0.9388 H   0  0  0  0  0  0  0  0  0  0  0  0
   -3.8187   -2.7164   -1.5439 H   0  0  0  0  0  0  0  0  0  0  0  0
   -2.8084   -2.8628   -3.0017 H   0  0  0  0  0  0  0  0  0  0  0  0
   -3.9777   -1.5432   -2.8909 H   0  0  0  0  0  0  0  0  0  0  0  0
   -3.9541    1.0502   -1.2874 H   0  0  0  0  0  0  0  0  0  0  0  0
   -4.8893   -0.4579   -1.2066 H   0  0  0  0  0  0  0  0  0  0  0  0
    0.5225    2.9423    0.7321 H   0  0  0  0  0  0  0  0  0  0  0  0
    5.7410    3.4714   -0.2856 H   0  0  0  0  0  0  0  0  0  0  0  0
    4.6911    4.8047    0.1610 H   0  0  0  0  0  0  0  0  0  0  0  0
   -7.7106    2.4549    1.0633 H   0  0  0  0  0  0  0  0  0  0  0  0
  1 17  1  0  0  0  0
  1 19  1  0  0  0  0
  1 21  1  0  0  0  0
  2 13  1  0  0  0  0
  2 16  1  0  0  0  0
  3 14  1  0  0  0  0
  3 34  1  0  0  0  0
  4 15  1  0  0  0  0
  4 35  1  0  0  0  0
  5 25  2  0  0  0  0
  6 27  1  0  0  0  0
  6 47  1  0  0  0  0
  7 27  2  0  0  0  0
  8 16  1  0  0  0  0
  8 18  1  0  0  0  0
  8 20  1  0  0  0  0
  9 20  2  0  0  0  0
  9 22  1  0  0  0  0
 10 18  2  0  0  0  0
 10 26  1  0  0  0  0
 11 24  1  0  0  0  0
 11 26  2  0  0  0  0
 12 24  1  0  0  0  0
 12 45  1  0  0  0  0
 12 46  1  0  0  0  0
 13 14  1  0  0  0  0
 13 17  1  0  0  0  0
 13 28  1  0  0  0  0
 14 15  1  0  0  0  0
 14 29  1  0  0  0  0
 15 16  1  0  0  0  0
 15 30  1  0  0  0  0
 16 31  1  0  0  0  0
 17 32  1  0  0  0  0
 17 33  1  0  0  0  0
 18 22  1  0  0  0  0
 19 23  1  0  0  0  0
 19 36  1  0  0  0  0
 19 37  1  0  0  0  0
 20 38  1  0  0  0  0
 21 39  1  0  0  0  0
 21 40  1  0  0  0  0
 21 41  1  0  0  0  0
 22 24  2  0  0  0  0
 23 25  1  0  0  0  0
 23 42  1  0  0  0  0
 23 43  1  0  0  0  0
 25 27  1  0  0  0  0
 26 44  1  0  0  0  0
M  CHG  1   1   1
M  END
> <PUBCHEM_COMPOUND_CID>
1077

> <PUBCHEM_CONFORMER_RMSD>
1.2

> <PUBCHEM_CONFORMER_DIVERSEORDER>
50
20
277
78
428
157
90
464
183
25
13
502
212
58
111
153
421
53
5
171
332
528
177
535
226
323
473
87
32
444
333
477
371
396
549
215
445
203
133
192
220
413
17
289
325
147
11
42
19
392
148
541
28
281
8
33
60
352
213
292
450
276
467
106
430
108
172
159
540
482
86
288
6
454
493
361
109
359
92
205
18
102
77
324
48
49
101
308
460
96
443
41
105
73
91
94
202
2
446
1
130
412
22
488
399
29
206
405
511
125
237
485
107
465
104
21
163
35
64
71
518
389
62
155
121
194
116
234
219
526
342
161
146
176
534
370
3
15
478
506
486
31
93
43
141
470
273
30
487
214
63
304
533
120
204
26
167
501
331
4
310
187
394
173
265
82
37
294
422
463
503
402
144
302
10
259
316

> <PUBCHEM_EFFECTIVE_ROTOR_COUNT>
8

> <PUBCHEM_PHARMACOPHORE_FEATURES>
17
1 12 cation
1 12 donor
1 2 acceptor
1 3 acceptor
1 3 donor
1 4 acceptor
1 4 donor
1 5 acceptor
1 6 acceptor
1 7 acceptor
3 10 11 26 cation
3 6 7 27 anion
3 8 10 18 cation
3 8 9 20 cation
5 2 13 14 15 16 rings
5 8 9 18 20 22 rings
6 10 11 18 22 24 26 rings

> <PUBCHEM_HEAVY_ATOM_COUNT>
27

> <PUBCHEM_ATOM_DEF_STEREO_COUNT>
0

> <PUBCHEM_ATOM_UDEF_STEREO_COUNT>
4

> <PUBCHEM_BOND_DEF_STEREO_COUNT>
0

> <PUBCHEM_BOND_UDEF_STEREO_COUNT>
0

> <PUBCHEM_ISOTOPIC_ATOM_COUNT>
0

> <PUBCHEM_COMPONENT_COUNT>
1

> <PUBCHEM_CACTVS_TAUTO_COUNT>
6

> <PUBCHEM_CONFORMER_ID>
0000043500000032

> <PUBCHEM_MMFF94_ENERGY>
57.1083

> <PUBCHEM_FEATURE_SELFOVERLAP>
86.949

> <PUBCHEM_SHAPE_FINGERPRINT>
10165383 225 17894642443770291790
10411042 1 17833833772802783922
10675989 125 18412828001601811104
10906281 52 18266741471514356548
11070050 100 17385442098770992291
12788726 201 17489031448974543697
13583140 156 18334864901062551123
13590594 115 18122057594770630962
13878862 14 18117253910204787949
13944108 23 18267873787047779028
14114211 68 17969809439622432054
14251764 75 18342745135010900017
14848178 96 18264757934482065660
14955137 171 18120935010220370834
15142526 21 18334576875796607547
15326921 28 16691300904947935520
15475509 84 17755855321047958531
18335252 114 18269270171425721159
21475661 188 18410016562926519319
21585483 110 18337383843431562309
22122407 14 18194129521557518193
23558518 356 18049161365070190223
23845131 108 18187081780535240019
3472631 163 18201721747793520631
3680242 22 18336254683416928514
38570 142 18339657701510795382
474 4 18411133675325200903
5104073 3 18114736135498085058
57527295 17 18265336286980163862
59124914 9 18410011074301147928
633830 44 18339356474074702326
7288768 16 18115866480780065627
9777508 108 18042135417234309227

> <PUBCHEM_SHAPE_MULTIPOLES>
499.38
13.72
4.61
1.44
21.21
0.61
0
13.38
-0.28
-4.16
-1.21
1.49
-1.12
-2.08

> <PUBCHEM_SHAPE_SELFOVERLAP>
1044.842

> <PUBCHEM_SHAPE_VOLUME>
284.4

> <PUBCHEM_COORDINATE_TYPE>
2
5
10

$$$$
