474
  -OEChem-08152602493D

 45 47  0     1  0  0  0  0  0999 V2000
    4.3957   -0.7611    1.1833 P   0  0  1  0  0  0  0  0  0  0  0  0
    0.2828    0.5047    0.7052 O   0  0  0  0  0  0  0  0  0  0  0  0
   -1.2234    3.3654   -0.8318 O   0  0  0  0  0  0  0  0  0  0  0  0
    1.7504    2.8760   -1.5528 O   0  0  0  0  0  0  0  0  0  0  0  0
    2.9121   -0.1724    1.4573 O   0  0  0  0  0  0  0  0  0  0  0  0
    4.6093   -0.5585   -0.4105 O   0  0  0  0  0  0  0  0  0  0  0  0
    5.3826    0.3333    1.8541 O   0  0  0  0  0  0  0  0  0  0  0  0
    4.6021   -2.1666    1.6711 O   0  0  0  0  0  0  0  0  0  0  0  0
   -1.8971    0.2509   -0.1809 N   0  0  0  0  0  0  0  0  0  0  0  0
   -2.8487   -1.3632   -1.3907 N   0  0  0  0  0  0  0  0  0  0  0  0
   -3.6742    0.6719    1.4210 N   0  0  0  0  0  0  0  0  0  0  0  0
   -5.5961   -0.7764    1.0151 N   0  0  0  0  0  0  0  0  0  0  0  0
   -5.6422   -2.3833   -0.7576 N   0  0  0  0  0  0  0  0  0  0  0  0
    3.6971   -1.3713   -1.1998 N   0  0  0  0  0  0  0  0  0  0  0  0
   -0.4461    2.1807   -0.8294 C   0  0  1  0  0  0  0  0  0  0  0  0
    0.9912    2.4497   -0.4374 C   0  0  1  0  0  0  0  0  0  0  0  0
   -0.8906    1.2137    0.2621 C   0  0  2  0  0  0  0  0  0  0  0  0
    1.4315    1.0828    0.0617 C   0  0  1  0  0  0  0  0  0  0  0  0
    2.5859    1.1440    1.0460 C   0  0  0  0  0  0  0  0  0  0  0  0
   -3.1308    0.0423    0.3685 C   0  0  0  0  0  0  0  0  0  0  0  0
   -1.7753   -0.6167   -1.2347 C   0  0  0  0  0  0  0  0  0  0  0  0
   -3.7039   -0.9619   -0.3954 C   0  0  0  0  0  0  0  0  0  0  0  0
   -4.9854   -1.3697   -0.0388 C   0  0  0  0  0  0  0  0  0  0  0  0
   -4.9126    0.1932    1.6699 C   0  0  0  0  0  0  0  0  0  0  0  0
    4.0334   -1.0601   -2.5849 C   0  0  0  0  0  0  0  0  0  0  0  0
    4.0525   -2.7474   -0.8706 C   0  0  0  0  0  0  0  0  0  0  0  0
   -0.4970    1.7526   -1.8370 H   0  0  0  0  0  0  0  0  0  0  0  0
    1.0492    3.2206    0.3396 H   0  0  0  0  0  0  0  0  0  0  0  0
   -1.3012    1.7494    1.1257 H   0  0  0  0  0  0  0  0  0  0  0  0
    1.6903    0.4232   -0.7734 H   0  0  0  0  0  0  0  0  0  0  0  0
    2.2979    1.6965    1.9463 H   0  0  0  0  0  0  0  0  0  0  0  0
    3.4511    1.6438    0.5986 H   0  0  0  0  0  0  0  0  0  0  0  0
   -2.1463    3.1078   -0.9970 H   0  0  0  0  0  0  0  0  0  0  0  0
    1.7126    2.1829   -2.2335 H   0  0  0  0  0  0  0  0  0  0  0  0
   -0.8848   -0.6675   -1.8465 H   0  0  0  0  0  0  0  0  0  0  0  0
   -5.4316    0.6460    2.5079 H   0  0  0  0  0  0  0  0  0  0  0  0
   -6.5730   -2.6624   -0.4788 H   0  0  0  0  0  0  0  0  0  0  0  0
   -5.1885   -2.8279   -1.5442 H   0  0  0  0  0  0  0  0  0  0  0  0
    5.5111    0.3219    2.8266 H   0  0  0  0  0  0  0  0  0  0  0  0
    5.0891   -1.2497   -2.8107 H   0  0  0  0  0  0  0  0  0  0  0  0
    3.8222   -0.0055   -2.7936 H   0  0  0  0  0  0  0  0  0  0  0  0
    3.4184   -1.6502   -3.2728 H   0  0  0  0  0  0  0  0  0  0  0  0
    3.7687   -3.4123   -1.6974 H   0  0  0  0  0  0  0  0  0  0  0  0
    3.4575   -3.1190   -0.0324 H   0  0  0  0  0  0  0  0  0  0  0  0
    5.1251   -2.9016   -0.7060 H   0  0  0  0  0  0  0  0  0  0  0  0
  1  5  1  0  0  0  0
  1  6  1  0  0  0  0
  1  7  1  0  0  0  0
  1  8  2  0  0  0  0
  2 17  1  0  0  0  0
  2 18  1  0  0  0  0
  3 15  1  0  0  0  0
  3 33  1  0  0  0  0
  4 16  1  0  0  0  0
  4 34  1  0  0  0  0
  5 19  1  0  0  0  0
  6 14  1  0  0  0  0
  7 39  1  0  0  0  0
  9 17  1  0  0  0  0
  9 20  1  0  0  0  0
  9 21  1  0  0  0  0
 10 21  2  0  0  0  0
 10 22  1  0  0  0  0
 11 20  2  0  0  0  0
 11 24  1  0  0  0  0
 12 23  1  0  0  0  0
 12 24  2  0  0  0  0
 13 23  1  0  0  0  0
 13 37  1  0  0  0  0
 13 38  1  0  0  0  0
 14 25  1  0  0  0  0
 14 26  1  0  0  0  0
 15 16  1  0  0  0  0
 15 17  1  0  0  0  0
 15 27  1  0  0  0  0
 16 18  1  0  0  0  0
 16 28  1  0  0  0  0
 17 29  1  0  0  0  0
 18 19  1  0  0  0  0
 18 30  1  0  0  0  0
 19 31  1  0  0  0  0
 19 32  1  0  0  0  0
 20 22  1  0  0  0  0
 21 35  1  0  0  0  0
 22 23  2  0  0  0  0
 24 36  1  0  0  0  0
 25 40  1  0  0  0  0
 25 41  1  0  0  0  0
 25 42  1  0  0  0  0
 26 43  1  0  0  0  0
 26 44  1  0  0  0  0
 26 45  1  0  0  0  0
M  END
> <PUBCHEM_COMPOUND_CID>
474

> <PUBCHEM_CONFORMER_RMSD>
1.2

> <PUBCHEM_CONFORMER_DIVERSEORDER>
137
520
46
433
186
189
335
140
395
80
37
2
33
98
283
7
126
17
102
329
324
110
253
90
66
23
372
24
75
460
118
476
94
256
215
25
147
539
326
16
112
227
130
10
88
207
465
218
70
334
369
52
71
117
351
93
18
5
45
337
36
159
414
144
468
92
22
206
247
336
396
32
488
164
61
8
122
63
410
318
343
1
38
289
379
101
172
79
12
11
373
417
26
72
282
27
20
447
115
378
158
150
125
167
354
196
513
230
211
190
449
242
133
202
405
310
234
183
180
272
393
494
67
235
9
420
4
40
349
41
424
160

> <PUBCHEM_MMFF94_PARTIAL_CHARGES>
33
1 1.51
10 -0.57
11 -0.57
12 -0.62
13 -0.9
14 -0.64
15 0.28
16 0.28
17 0.54
18 0.28
19 0.28
2 -0.56
20 0.11
21 0.04
22 0.23
23 0.41
24 0.47
25 0.27
26 0.27
3 -0.68
33 0.4
34 0.4
35 0.15
36 0.15
37 0.4
38 0.4
39 0.5
4 -0.68
5 -0.55
6 -0.17
7 -0.77
8 -0.7
9 0.05

> <PUBCHEM_EFFECTIVE_ROTOR_COUNT>
7

> <PUBCHEM_PHARMACOPHORE_FEATURES>
15
1 13 cation
1 13 donor
1 2 acceptor
1 3 acceptor
1 3 donor
1 4 acceptor
1 4 donor
1 7 acceptor
1 8 acceptor
3 11 12 24 cation
3 9 10 21 cation
3 9 11 20 cation
5 2 15 16 17 18 rings
5 9 10 20 21 22 rings
6 11 12 20 22 23 24 rings

> <PUBCHEM_HEAVY_ATOM_COUNT>
26

> <PUBCHEM_ATOM_DEF_STEREO_COUNT>
0

> <PUBCHEM_ATOM_UDEF_STEREO_COUNT>
4

> <PUBCHEM_BOND_DEF_STEREO_COUNT>
0

> <PUBCHEM_BOND_UDEF_STEREO_COUNT>
0

> <PUBCHEM_ISOTOPIC_ATOM_COUNT>
0

> <PUBCHEM_COMPONENT_COUNT>
1

> <PUBCHEM_CACTVS_TAUTO_COUNT>
3

> <PUBCHEM_CONFORMER_ID>
000001DA00000089

> <PUBCHEM_MMFF94_ENERGY>
48.0014

> <PUBCHEM_FEATURE_SELFOVERLAP>
76.739

> <PUBCHEM_SHAPE_FINGERPRINT>
10042902 136 18272942638651355318
10764073 3 16626893287354989221
10928967 22 18334011657626246026
11543360 7 14056719041154293817
11578080 2 18054478526663415721
11991303 11 17316478402095730821
12236239 1 18269835479590741121
12403259 327 16415195732066315355
12422481 6 18058742299267870743
12553582 1 18335141977227775126
12596602 18 16487257698381470659
12633257 1 16702014224157143598
12670546 177 13840261481328868259
12892183 10 17132114645237305113
13533116 47 17988361598001780315
13583140 156 16056584461285002737
13692114 37 17981891835635980705
13914758 101 18271802399019458825
14211702 104 18199470051249856951
14251740 57 17988650730372664214
14251758 9 18271531901494197837
14251764 30 18261683583812047082
14420673 8 17630625421984994551
14528608 73 11241970390850085035
14739800 52 17201354324307985289
15342816 4 18261392213873536892
17959699 21 11314025785970239183
1813 80 18408044009012321116
18222031 100 18409450297458701615
20388580 30 18113615720253793148
20645477 70 17750502061263081777
20693207 138 16733266862839528785
20775530 9 17911805678609673814
21859007 373 18128259978834411585
22393880 68 11530751626780716943
22950370 63 18260270732802389377
23559900 14 16199334090479989109
2838139 119 10737286857124826562
314173 85 18410290307088931689
34797466 226 14707217642634721979
5104073 3 17274838977697215819
6034566 193 12319154270196792738
7808743 9 10879409760633799570
7970288 3 18260259750592911979

> <PUBCHEM_SHAPE_MULTIPOLES>
467.95
12.88
2.91
1.88
3.31
0.97
0.11
-9.72
-3.83
-0.94
1.39
-1.88
-0.23
-0.24

> <PUBCHEM_SHAPE_SELFOVERLAP>
976.266

> <PUBCHEM_SHAPE_VOLUME>
269.3

> <PUBCHEM_COORDINATE_TYPE>
2
5
10

$$$$
