1008
  -OEChem-08152603352D

 60 63  0     1  0  0  0  0  0999 V2000
   14.5663   -3.0697    0.0000 P   0  0  0  0  0  0  0  0  0  0  0  0
    3.2467    0.9712    0.0000 P   0  0  0  0  0  0  0  0  0  0  0  0
   12.0317   -1.3052    0.0000 O   0  0  0  0  0  0  0  0  0  0  0  0
    6.3116    1.3507    0.0000 O   0  0  0  0  0  0  0  0  0  0  0  0
    9.4937   -1.8096    0.0000 O   0  0  0  0  0  0  0  0  0  0  0  0
    7.8638    3.4210    0.0000 O   0  0  0  0  0  0  0  0  0  0  0  0
   10.7755   -3.5675    0.0000 O   0  0  0  0  0  0  0  0  0  0  0  0
    5.7357    3.8734    0.0000 O   0  0  0  0  0  0  0  0  0  0  0  0
   13.7563   -2.4833    0.0000 O   0  0  0  0  0  0  0  0  0  0  0  0
    4.2412    1.0757    0.0000 O   0  0  0  0  0  0  0  0  0  0  0  0
   15.3764   -3.6561    0.0000 O   0  0  0  0  0  0  0  0  0  0  0  0
   15.1527   -2.2596    0.0000 O   0  0  0  0  0  0  0  0  0  0  0  0
    2.2522    0.8667    0.0000 O   0  0  0  0  0  0  0  0  0  0  0  0
    3.3512   -0.0233    0.0000 O   0  0  0  0  0  0  0  0  0  0  0  0
   13.9800   -3.8797    0.0000 O   0  0  0  0  0  0  0  0  0  0  0  0
    3.1422    1.9657    0.0000 O   0  0  0  0  0  0  0  0  0  0  0  0
   10.7695   -0.0473    0.0000 N   0  0  0  0  0  0  0  0  0  0  0  0
    8.0912    1.2574    0.0000 N   0  3  0  0  0  0  0  0  0  0  0  0
    8.9572   -0.2426    0.0000 N   0  0  0  0  0  0  0  0  0  0  0  0
   10.7695    1.5621    0.0000 N   0  0  0  0  0  0  0  0  0  0  0  0
    8.9572    2.7574    0.0000 N   0  0  0  0  0  0  0  0  0  0  0  0
   11.0801   -0.9979    0.0000 C   0  0  3  0  0  0  0  0  0  0  0  0
   10.4937   -1.8079    0.0000 C   0  0  3  0  0  0  0  0  0  0  0  0
    7.2252    1.7574    0.0000 C   0  0  3  0  0  0  0  0  0  0  0  0
    7.1206    2.7519    0.0000 C   0  0  3  0  0  0  0  0  0  0  0  0
   11.0829   -2.6159    0.0000 C   0  0  3  0  0  0  0  0  0  0  0  0
    6.1425    2.9598    0.0000 C   0  0  3  0  0  0  0  0  0  0  0  0
   12.0334   -2.3052    0.0000 C   0  0  3  0  0  0  0  0  0  0  0  0
    5.6425    2.0938    0.0000 C   0  0  3  0  0  0  0  0  0  0  0  0
    9.8232    0.2574    0.0000 C   0  0  0  0  0  0  0  0  0  0  0  0
   12.8435   -2.8916    0.0000 C   0  0  0  0  0  0  0  0  0  0  0  0
    4.6480    1.9893    0.0000 C   0  0  0  0  0  0  0  0  0  0  0  0
    8.9572    1.7574    0.0000 C   0  0  0  0  0  0  0  0  0  0  0  0
    9.8232    1.2574    0.0000 C   0  0  0  0  0  0  0  0  0  0  0  0
   11.3531    0.7574    0.0000 C   0  0  0  0  0  0  0  0  0  0  0  0
    8.0912    0.2574    0.0000 C   0  0  0  0  0  0  0  0  0  0  0  0
   11.5178   -0.5587    0.0000 H   0  0  0  0  0  0  0  0  0  0  0  0
   10.2113   -1.2559    0.0000 H   0  0  0  0  0  0  0  0  0  0  0  0
    7.1927    1.1382    0.0000 H   0  0  0  0  0  0  0  0  0  0  0  0
    6.9602    3.3508    0.0000 H   0  0  0  0  0  0  0  0  0  0  0  0
   11.5221   -3.0535    0.0000 H   0  0  0  0  0  0  0  0  0  0  0  0
    5.5233    2.9923    0.0000 H   0  0  0  0  0  0  0  0  0  0  0  0
   12.5854   -2.0228    0.0000 H   0  0  0  0  0  0  0  0  0  0  0  0
    5.4203    1.5150    0.0000 H   0  0  0  0  0  0  0  0  0  0  0  0
   12.3982   -3.3231    0.0000 H   0  0  0  0  0  0  0  0  0  0  0  0
   13.1911   -3.4050    0.0000 H   0  0  0  0  0  0  0  0  0  0  0  0
    4.6912    2.6078    0.0000 H   0  0  0  0  0  0  0  0  0  0  0  0
    4.0464    2.1393    0.0000 H   0  0  0  0  0  0  0  0  0  0  0  0
   11.9731    0.7574    0.0000 H   0  0  0  0  0  0  0  0  0  0  0  0
    7.5542   -0.0526    0.0000 H   0  0  0  0  0  0  0  0  0  0  0  0
    9.1847   -2.3471    0.0000 H   0  0  0  0  0  0  0  0  0  0  0  0
    7.7349    4.0275    0.0000 H   0  0  0  0  0  0  0  0  0  0  0  0
   11.1912   -4.0275    0.0000 H   0  0  0  0  0  0  0  0  0  0  0  0
    5.1191    3.9382    0.0000 H   0  0  0  0  0  0  0  0  0  0  0  0
    9.4941    3.0674    0.0000 H   0  0  0  0  0  0  0  0  0  0  0  0
    8.4203    3.0674    0.0000 H   0  0  0  0  0  0  0  0  0  0  0  0
   15.9423   -3.4029    0.0000 H   0  0  0  0  0  0  0  0  0  0  0  0
   14.8996   -1.6937    0.0000 H   0  0  0  0  0  0  0  0  0  0  0  0
    2.0000    0.3003    0.0000 H   0  0  0  0  0  0  0  0  0  0  0  0
    3.9176   -0.2755    0.0000 H   0  0  0  0  0  0  0  0  0  0  0  0
  1  9  1  0  0  0  0
  1 11  1  0  0  0  0
  1 12  1  0  0  0  0
  1 15  2  0  0  0  0
  2 10  1  0  0  0  0
  2 13  1  0  0  0  0
  2 14  1  0  0  0  0
  2 16  2  0  0  0  0
  3 22  1  0  0  0  0
  3 28  1  0  0  0  0
  4 24  1  0  0  0  0
  4 29  1  0  0  0  0
  5 23  1  0  0  0  0
  5 51  1  0  0  0  0
  6 25  1  0  0  0  0
  6 52  1  0  0  0  0
  7 26  1  0  0  0  0
  7 53  1  0  0  0  0
  8 27  1  0  0  0  0
  8 54  1  0  0  0  0
  9 31  1  0  0  0  0
 10 32  1  0  0  0  0
 11 57  1  0  0  0  0
 12 58  1  0  0  0  0
 13 59  1  0  0  0  0
 14 60  1  0  0  0  0
 17 22  1  0  0  0  0
 17 30  1  0  0  0  0
 17 35  1  0  0  0  0
 18 24  1  0  0  0  0
 18 33  2  0  0  0  0
 18 36  1  0  0  0  0
 19 30  1  0  0  0  0
 19 36  2  0  0  0  0
 20 34  1  0  0  0  0
 20 35  2  0  0  0  0
 21 33  1  0  0  0  0
 21 55  1  0  0  0  0
 21 56  1  0  0  0  0
 22 23  1  0  0  0  0
 22 37  1  0  0  0  0
 23 26  1  0  0  0  0
 23 38  1  0  0  0  0
 24 25  1  0  0  0  0
 24 39  1  0  0  0  0
 25 27  1  0  0  0  0
 25 40  1  0  0  0  0
 26 28  1  0  0  0  0
 26 41  1  0  0  0  0
 27 29  1  0  0  0  0
 27 42  1  0  0  0  0
 28 31  1  0  0  0  0
 28 43  1  0  0  0  0
 29 32  1  0  0  0  0
 29 44  1  0  0  0  0
 30 34  2  0  0  0  0
 31 45  1  0  0  0  0
 31 46  1  0  0  0  0
 32 47  1  0  0  0  0
 32 48  1  0  0  0  0
 33 34  1  0  0  0  0
 35 49  1  0  0  0  0
 36 50  1  0  0  0  0
M  CHG  1  18   1
M  END
> <PUBCHEM_COMPOUND_CID>
1008

> <PUBCHEM_COMPOUND_CANONICALIZED>
1

> <PUBCHEM_CACTVS_COMPLEXITY>
880

> <PUBCHEM_CACTVS_HBOND_ACCEPTOR>
17

> <PUBCHEM_CACTVS_HBOND_DONOR>
9

> <PUBCHEM_CACTVS_ROTATABLE_BOND>
8

> <PUBCHEM_CACTVS_SUBSKEYS>
AAADceBzvAMAAAAAAAAAAAAAAAAAAWJEgAAsAAAAAAAAAFgB+AAAHgAQCCAACBzhlwYF8L9MFxCgQQZhZICAgC0REKABUCAoVBCDWAJAyEAeRAgPAALTACDwMAIAAAAAAAAAAAAAAAAAAAAAAAAAAAAAAA==

> <PUBCHEM_IUPAC_OPENEYE_NAME>
[5-[6-amino-1-[3,4-dihydroxy-5-(phosphonooxymethyl)tetrahydrofuran-2-yl]purin-1-ium-9-yl]-3,4-dihydroxy-tetrahydrofuran-2-yl]methyl dihydrogen phosphate

> <PUBCHEM_IUPAC_CAS_NAME>
[5-[6-amino-1-[3,4-dihydroxy-5-(phosphonooxymethyl)-2-oxolanyl]-9-purin-1-iumyl]-3,4-dihydroxy-2-oxolanyl]methyl dihydrogen phosphate

> <PUBCHEM_IUPAC_NAME_MARKUP>
[5-[6-amino-1-[3,4-dihydroxy-5-(phosphonooxymethyl)oxolan-2-yl]purin-1-ium-9-yl]-3,4-dihydroxyoxolan-2-yl]methyl dihydrogen phosphate

> <PUBCHEM_IUPAC_NAME>
[5-[6-amino-1-[3,4-dihydroxy-5-(phosphonooxymethyl)oxolan-2-yl]purin-1-ium-9-yl]-3,4-dihydroxyoxolan-2-yl]methyl dihydrogen phosphate

> <PUBCHEM_IUPAC_SYSTEMATIC_NAME>
[5-[6-azanyl-1-[3,4-bis(oxidanyl)-5-(phosphonooxymethyl)oxolan-2-yl]purin-1-ium-9-yl]-3,4-bis(oxidanyl)oxolan-2-yl]methyl dihydrogen phosphate

> <PUBCHEM_IUPAC_TRADITIONAL_NAME>
[5-[6-amino-1-[3,4-dihydroxy-5-(phosphonooxymethyl)tetrahydrofuran-2-yl]purin-1-ium-9-yl]-3,4-dihydroxy-tetrahydrofuran-2-yl]methyl dihydrogen phosphate

> <PUBCHEM_IUPAC_INCHI>
InChI=1S/C15H23N5O14P2/c16-12-7-13(18-4-19(12)14-10(23)8(21)5(33-14)1-31-35(25,26)27)20(3-17-7)15-11(24)9(22)6(34-15)2-32-36(28,29)30/h3-6,8-11,14-16,21-24H,1-2H2,(H4,25,26,27,28,29,30)/p+1

> <PUBCHEM_IUPAC_INCHIKEY>
PJTKTOMRVMPIEN-UHFFFAOYSA-O

> <PUBCHEM_XLOGP3>
-6.6

> <PUBCHEM_EXACT_MASS>
560.07949945

> <PUBCHEM_MOLECULAR_FORMULA>
C15H24N5O14P2+

> <PUBCHEM_MOLECULAR_WEIGHT>
560.32

> <PUBCHEM_SMILES>
C1=NC2=C(N1C3C(C(C(O3)COP(=O)(O)O)O)O)N=C[N+](=C2N)C4C(C(C(O4)COP(=O)(O)O)O)O

> <PUBCHEM_CONNECTIVITY_SMILES>
C1=NC2=C(N1C3C(C(C(O3)COP(=O)(O)O)O)O)N=C[N+](=C2N)C4C(C(C(O4)COP(=O)(O)O)O)O

> <PUBCHEM_CACTVS_TPSA>
294

> <PUBCHEM_MONOISOTOPIC_WEIGHT>
560.07949945

> <PUBCHEM_TOTAL_CHARGE>
1

> <PUBCHEM_HEAVY_ATOM_COUNT>
36

> <PUBCHEM_ATOM_DEF_STEREO_COUNT>
0

> <PUBCHEM_ATOM_UDEF_STEREO_COUNT>
8

> <PUBCHEM_BOND_DEF_STEREO_COUNT>
0

> <PUBCHEM_BOND_UDEF_STEREO_COUNT>
0

> <PUBCHEM_ISOTOPIC_ATOM_COUNT>
0

> <PUBCHEM_COMPONENT_COUNT>
1

> <PUBCHEM_CACTVS_TAUTO_COUNT>
-1

> <PUBCHEM_COORDINATE_TYPE>
1
5
255

> <PUBCHEM_BONDANNOTATIONS>
22  17  3
17  30  8
17  35  8
24  18  3
18  33  8
18  36  8
19  30  8
19  36  8
20  34  8
20  35  8
28  31  3
29  32  3
30  34  8
33  34  8
23  5  3
25  6  3
26  7  3
27  8  3

$$$$
