256
  -OEChem-08152602332D

220221  0     1  0  0  0  0  0999 V2000
   21.0526    5.1900    0.0000 P   0  0  0  0  0  0  0  0  0  0  0  0
   19.3205    4.1900    0.0000 O   0  0  0  0  0  0  0  0  0  0  0  0
   16.7224    6.6900    0.0000 O   0  0  0  0  0  0  0  0  0  0  0  0
   17.5885    5.1900    0.0000 O   0  0  0  0  0  0  0  0  0  0  0  0
   19.3205    1.1900    0.0000 O   0  0  0  0  0  0  0  0  0  0  0  0
   14.1244    5.1900    0.0000 O   0  0  0  0  0  0  0  0  0  0  0  0
   17.5885    2.1900    0.0000 O   0  0  0  0  0  0  0  0  0  0  0  0
   21.0526    4.1900    0.0000 O   0  0  0  0  0  0  0  0  0  0  0  0
   14.1244    7.1900    0.0000 O   0  0  0  0  0  0  0  0  0  0  0  0
   16.7224    8.6900    0.0000 O   0  0  0  0  0  0  0  0  0  0  0  0
   14.1244    4.1900    0.0000 O   0  0  0  0  0  0  0  0  0  0  0  0
   21.9186    3.6900    0.0000 O   0  0  0  0  0  0  0  0  0  0  0  0
   17.5885    1.1900    0.0000 O   0  0  0  0  0  0  0  0  0  0  0  0
   13.2583    6.6900    0.0000 O   0  0  0  0  0  0  0  0  0  0  0  0
   21.0526    6.1900    0.0000 O   0  0  0  0  0  0  0  0  0  0  0  0
   22.0526    5.1900    0.0000 O   0  0  0  0  0  0  0  0  0  0  0  0
   13.2583    2.6900    0.0000 O   0  0  0  0  0  0  0  0  0  0  0  0
   23.6506    3.6900    0.0000 O   0  0  0  0  0  0  0  0  0  0  0  0
   20.0526    5.1900    0.0000 O   0  0  0  0  0  0  0  0  0  0  0  0
   16.7224   -0.3100    0.0000 O   0  0  0  0  0  0  0  0  0  0  0  0
   11.5263    6.6900    0.0000 O   0  0  0  0  0  0  0  0  0  0  0  0
   15.8564    4.1900    0.0000 N   0  0  0  0  0  0  0  0  0  0  0  0
   21.0526    2.1900    0.0000 N   0  0  0  0  0  0  0  0  0  0  0  0
   15.8564    5.1900    0.0000 C   0  0  3  0  0  0  0  0  0  0  0  0
   18.4545    3.6900    0.0000 C   0  0  3  0  0  0  0  0  0  0  0  0
   19.3205    2.1900    0.0000 C   0  0  3  0  0  0  0  0  0  0  0  0
   18.4545    2.6900    0.0000 C   0  0  3  0  0  0  0  0  0  0  0  0
   14.9904    5.6900    0.0000 C   0  0  3  0  0  0  0  0  0  0  0  0
   20.1865    2.6900    0.0000 C   0  0  3  0  0  0  0  0  0  0  0  0
   16.7224    5.6900    0.0000 C   0  0  3  0  0  0  0  0  0  0  0  0
   14.9904    6.6900    0.0000 C   0  0  3  0  0  0  0  0  0  0  0  0
   15.8564    7.1900    0.0000 C   0  0  3  0  0  0  0  0  0  0  0  0
   20.1865    3.6900    0.0000 C   0  0  3  0  0  0  0  0  0  0  0  0
   17.5885    4.1900    0.0000 C   0  0  0  0  0  0  0  0  0  0  0  0
   15.8564    8.1900    0.0000 C   0  0  0  0  0  0  0  0  0  0  0  0
   14.9904    3.6900    0.0000 C   0  0  0  0  0  0  0  0  0  0  0  0
   21.9186    2.6900    0.0000 C   0  0  0  0  0  0  0  0  0  0  0  0
   18.4545    0.6900    0.0000 C   0  0  0  0  0  0  0  0  0  0  0  0
   13.2583    5.6900    0.0000 C   0  0  0  0  0  0  0  0  0  0  0  0
   14.9904    2.6900    0.0000 C   0  0  0  0  0  0  0  0  0  0  0  0
   22.7846    2.1900    0.0000 C   0  0  0  0  0  0  0  0  0  0  0  0
   18.4545   -0.3100    0.0000 C   0  0  0  0  0  0  0  0  0  0  0  0
   14.1244    2.1900    0.0000 C   0  0  3  0  0  0  0  0  0  0  0  0
   12.3923    5.1900    0.0000 C   0  0  0  0  0  0  0  0  0  0  0  0
   23.6506    2.6900    0.0000 C   0  0  3  0  0  0  0  0  0  0  0  0
   17.5885   -0.8100    0.0000 C   0  0  3  0  0  0  0  0  0  0  0  0
   11.5263    5.6900    0.0000 C   0  0  3  0  0  0  0  0  0  0  0  0
   14.1244    1.1900    0.0000 C   0  0  0  0  0  0  0  0  0  0  0  0
   24.5167    2.1900    0.0000 C   0  0  0  0  0  0  0  0  0  0  0  0
   17.5885   -1.8100    0.0000 C   0  0  0  0  0  0  0  0  0  0  0  0
   10.6603    5.1900    0.0000 C   0  0  0  0  0  0  0  0  0  0  0  0
   13.2583    0.6900    0.0000 C   0  0  0  0  0  0  0  0  0  0  0  0
   25.3827    2.6900    0.0000 C   0  0  0  0  0  0  0  0  0  0  0  0
   16.7224   -2.3100    0.0000 C   0  0  0  0  0  0  0  0  0  0  0  0
    9.7942    5.6900    0.0000 C   0  0  0  0  0  0  0  0  0  0  0  0
   13.2583   -0.3100    0.0000 C   0  0  0  0  0  0  0  0  0  0  0  0
   26.2487    2.1900    0.0000 C   0  0  0  0  0  0  0  0  0  0  0  0
   16.7224   -3.3100    0.0000 C   0  0  0  0  0  0  0  0  0  0  0  0
    8.9282    5.1900    0.0000 C   0  0  0  0  0  0  0  0  0  0  0  0
   12.3923   -0.8100    0.0000 C   0  0  0  0  0  0  0  0  0  0  0  0
   27.1147    2.6900    0.0000 C   0  0  0  0  0  0  0  0  0  0  0  0
   15.8564   -3.8100    0.0000 C   0  0  0  0  0  0  0  0  0  0  0  0
    8.0622    5.6900    0.0000 C   0  0  0  0  0  0  0  0  0  0  0  0
   12.3923   -1.8100    0.0000 C   0  0  0  0  0  0  0  0  0  0  0  0
   27.9808    2.1900    0.0000 C   0  0  0  0  0  0  0  0  0  0  0  0
   15.8564   -4.8100    0.0000 C   0  0  0  0  0  0  0  0  0  0  0  0
    7.1962    5.1900    0.0000 C   0  0  0  0  0  0  0  0  0  0  0  0
   11.5263   -2.3100    0.0000 C   0  0  0  0  0  0  0  0  0  0  0  0
   28.8468    2.6900    0.0000 C   0  0  0  0  0  0  0  0  0  0  0  0
   14.9904   -5.3100    0.0000 C   0  0  0  0  0  0  0  0  0  0  0  0
    6.3301    5.6900    0.0000 C   0  0  0  0  0  0  0  0  0  0  0  0
   11.5263   -3.3100    0.0000 C   0  0  0  0  0  0  0  0  0  0  0  0
   29.7128    2.1900    0.0000 C   0  0  0  0  0  0  0  0  0  0  0  0
   14.9904   -6.3100    0.0000 C   0  0  0  0  0  0  0  0  0  0  0  0
    5.4641    5.1900    0.0000 C   0  0  0  0  0  0  0  0  0  0  0  0
   10.6603   -3.8100    0.0000 C   0  0  0  0  0  0  0  0  0  0  0  0
   30.5788    2.6900    0.0000 C   0  0  0  0  0  0  0  0  0  0  0  0
   14.1244   -6.8100    0.0000 C   0  0  0  0  0  0  0  0  0  0  0  0
    4.5981    5.6900    0.0000 C   0  0  0  0  0  0  0  0  0  0  0  0
   10.6603   -4.8100    0.0000 C   0  0  0  0  0  0  0  0  0  0  0  0
   31.4449    2.1900    0.0000 C   0  0  0  0  0  0  0  0  0  0  0  0
   14.1244   -7.8100    0.0000 C   0  0  0  0  0  0  0  0  0  0  0  0
    3.7320    5.1900    0.0000 C   0  0  0  0  0  0  0  0  0  0  0  0
    9.7942   -5.3100    0.0000 C   0  0  0  0  0  0  0  0  0  0  0  0
   32.3109    2.6900    0.0000 C   0  0  0  0  0  0  0  0  0  0  0  0
   13.2583   -8.3100    0.0000 C   0  0  0  0  0  0  0  0  0  0  0  0
    2.8660    5.6900    0.0000 C   0  0  0  0  0  0  0  0  0  0  0  0
    9.7942   -6.3100    0.0000 C   0  0  0  0  0  0  0  0  0  0  0  0
   33.1769    2.1900    0.0000 C   0  0  0  0  0  0  0  0  0  0  0  0
   13.2583   -9.3100    0.0000 C   0  0  0  0  0  0  0  0  0  0  0  0
    2.0000    5.1900    0.0000 C   0  0  0  0  0  0  0  0  0  0  0  0
   15.3195    4.8800    0.0000 H   0  0  0  0  0  0  0  0  0  0  0  0
   18.4545    4.3100    0.0000 H   0  0  0  0  0  0  0  0  0  0  0  0
   19.8574    1.8800    0.0000 H   0  0  0  0  0  0  0  0  0  0  0  0
   18.4545    2.0700    0.0000 H   0  0  0  0  0  0  0  0  0  0  0  0
   14.9904    5.0700    0.0000 H   0  0  0  0  0  0  0  0  0  0  0  0
   20.1865    2.0700    0.0000 H   0  0  0  0  0  0  0  0  0  0  0  0
   16.7224    5.0700    0.0000 H   0  0  0  0  0  0  0  0  0  0  0  0
   14.9904    7.3100    0.0000 H   0  0  0  0  0  0  0  0  0  0  0  0
   16.3933    7.5000    0.0000 H   0  0  0  0  0  0  0  0  0  0  0  0
   20.7235    3.3800    0.0000 H   0  0  0  0  0  0  0  0  0  0  0  0
   16.9779    4.2977    0.0000 H   0  0  0  0  0  0  0  0  0  0  0  0
   17.3764    3.6074    0.0000 H   0  0  0  0  0  0  0  0  0  0  0  0
   16.3933    3.8800    0.0000 H   0  0  0  0  0  0  0  0  0  0  0  0
   21.0526    1.5700    0.0000 H   0  0  0  0  0  0  0  0  0  0  0  0
   15.6444    8.7726    0.0000 H   0  0  0  0  0  0  0  0  0  0  0  0
   15.2458    8.0823    0.0000 H   0  0  0  0  0  0  0  0  0  0  0  0
   17.0515    2.5000    0.0000 H   0  0  0  0  0  0  0  0  0  0  0  0
   14.1244    7.8100    0.0000 H   0  0  0  0  0  0  0  0  0  0  0  0
   15.2024    2.1074    0.0000 H   0  0  0  0  0  0  0  0  0  0  0  0
   15.6010    2.7977    0.0000 H   0  0  0  0  0  0  0  0  0  0  0  0
   22.3861    1.7150    0.0000 H   0  0  0  0  0  0  0  0  0  0  0  0
   23.1831    1.7150    0.0000 H   0  0  0  0  0  0  0  0  0  0  0  0
   18.6665   -0.8926    0.0000 H   0  0  0  0  0  0  0  0  0  0  0  0
   19.0651   -0.2023    0.0000 H   0  0  0  0  0  0  0  0  0  0  0  0
   13.5874    1.8800    0.0000 H   0  0  0  0  0  0  0  0  0  0  0  0
   11.9938    4.7150    0.0000 H   0  0  0  0  0  0  0  0  0  0  0  0
   12.7908    4.7150    0.0000 H   0  0  0  0  0  0  0  0  0  0  0  0
   16.7224    9.3100    0.0000 H   0  0  0  0  0  0  0  0  0  0  0  0
   24.1876    3.0000    0.0000 H   0  0  0  0  0  0  0  0  0  0  0  0
   17.5885   -0.1900    0.0000 H   0  0  0  0  0  0  0  0  0  0  0  0
   12.0632    6.0000    0.0000 H   0  0  0  0  0  0  0  0  0  0  0  0
   14.3364    0.6074    0.0000 H   0  0  0  0  0  0  0  0  0  0  0  0
   14.7349    1.2977    0.0000 H   0  0  0  0  0  0  0  0  0  0  0  0
   24.1181    1.7150    0.0000 H   0  0  0  0  0  0  0  0  0  0  0  0
   24.9152    1.7150    0.0000 H   0  0  0  0  0  0  0  0  0  0  0  0
   17.8005   -2.3926    0.0000 H   0  0  0  0  0  0  0  0  0  0  0  0
   18.1990   -1.7023    0.0000 H   0  0  0  0  0  0  0  0  0  0  0  0
   10.2617    4.7150    0.0000 H   0  0  0  0  0  0  0  0  0  0  0  0
   11.0588    4.7150    0.0000 H   0  0  0  0  0  0  0  0  0  0  0  0
   13.0463    1.2726    0.0000 H   0  0  0  0  0  0  0  0  0  0  0  0
   12.6477    0.5823    0.0000 H   0  0  0  0  0  0  0  0  0  0  0  0
   25.7812    3.1650    0.0000 H   0  0  0  0  0  0  0  0  0  0  0  0
   24.9842    3.1650    0.0000 H   0  0  0  0  0  0  0  0  0  0  0  0
   16.5104   -1.7274    0.0000 H   0  0  0  0  0  0  0  0  0  0  0  0
   16.1119   -2.4177    0.0000 H   0  0  0  0  0  0  0  0  0  0  0  0
   10.1928    6.1650    0.0000 H   0  0  0  0  0  0  0  0  0  0  0  0
    9.3957    6.1650    0.0000 H   0  0  0  0  0  0  0  0  0  0  0  0
   13.4704   -0.8926    0.0000 H   0  0  0  0  0  0  0  0  0  0  0  0
   13.8689   -0.2023    0.0000 H   0  0  0  0  0  0  0  0  0  0  0  0
   21.5895    6.5000    0.0000 H   0  0  0  0  0  0  0  0  0  0  0  0
   22.3626    5.7269    0.0000 H   0  0  0  0  0  0  0  0  0  0  0  0
   25.8502    1.7150    0.0000 H   0  0  0  0  0  0  0  0  0  0  0  0
   26.6472    1.7150    0.0000 H   0  0  0  0  0  0  0  0  0  0  0  0
   12.7214    2.3800    0.0000 H   0  0  0  0  0  0  0  0  0  0  0  0
   24.1876    4.0000    0.0000 H   0  0  0  0  0  0  0  0  0  0  0  0
   16.9345   -3.8926    0.0000 H   0  0  0  0  0  0  0  0  0  0  0  0
   17.3330   -3.2023    0.0000 H   0  0  0  0  0  0  0  0  0  0  0  0
    8.5297    4.7150    0.0000 H   0  0  0  0  0  0  0  0  0  0  0  0
    9.3267    4.7150    0.0000 H   0  0  0  0  0  0  0  0  0  0  0  0
   12.1803   -0.2274    0.0000 H   0  0  0  0  0  0  0  0  0  0  0  0
   11.7817   -0.9177    0.0000 H   0  0  0  0  0  0  0  0  0  0  0  0
   27.5133    3.1650    0.0000 H   0  0  0  0  0  0  0  0  0  0  0  0
   26.7162    3.1650    0.0000 H   0  0  0  0  0  0  0  0  0  0  0  0
   16.1855   -0.6200    0.0000 H   0  0  0  0  0  0  0  0  0  0  0  0
   10.9893    7.0000    0.0000 H   0  0  0  0  0  0  0  0  0  0  0  0
   15.6444   -3.2274    0.0000 H   0  0  0  0  0  0  0  0  0  0  0  0
   15.2458   -3.9177    0.0000 H   0  0  0  0  0  0  0  0  0  0  0  0
    8.4607    6.1650    0.0000 H   0  0  0  0  0  0  0  0  0  0  0  0
    7.6636    6.1650    0.0000 H   0  0  0  0  0  0  0  0  0  0  0  0
   12.6044   -2.3926    0.0000 H   0  0  0  0  0  0  0  0  0  0  0  0
   13.0029   -1.7023    0.0000 H   0  0  0  0  0  0  0  0  0  0  0  0
   27.5822    1.7150    0.0000 H   0  0  0  0  0  0  0  0  0  0  0  0
   28.3793    1.7150    0.0000 H   0  0  0  0  0  0  0  0  0  0  0  0
   16.0685   -5.3926    0.0000 H   0  0  0  0  0  0  0  0  0  0  0  0
   16.4670   -4.7023    0.0000 H   0  0  0  0  0  0  0  0  0  0  0  0
    6.7976    4.7150    0.0000 H   0  0  0  0  0  0  0  0  0  0  0  0
    7.5947    4.7150    0.0000 H   0  0  0  0  0  0  0  0  0  0  0  0
   11.3142   -1.7274    0.0000 H   0  0  0  0  0  0  0  0  0  0  0  0
   10.9157   -2.4177    0.0000 H   0  0  0  0  0  0  0  0  0  0  0  0
   29.2453    3.1650    0.0000 H   0  0  0  0  0  0  0  0  0  0  0  0
   28.4483    3.1650    0.0000 H   0  0  0  0  0  0  0  0  0  0  0  0
   14.7783   -4.7274    0.0000 H   0  0  0  0  0  0  0  0  0  0  0  0
   14.3798   -5.4177    0.0000 H   0  0  0  0  0  0  0  0  0  0  0  0
    6.7287    6.1650    0.0000 H   0  0  0  0  0  0  0  0  0  0  0  0
    5.9316    6.1650    0.0000 H   0  0  0  0  0  0  0  0  0  0  0  0
   11.7383   -3.8926    0.0000 H   0  0  0  0  0  0  0  0  0  0  0  0
   12.1369   -3.2023    0.0000 H   0  0  0  0  0  0  0  0  0  0  0  0
   29.3143    1.7150    0.0000 H   0  0  0  0  0  0  0  0  0  0  0  0
   30.1113    1.7150    0.0000 H   0  0  0  0  0  0  0  0  0  0  0  0
   15.2024   -6.8926    0.0000 H   0  0  0  0  0  0  0  0  0  0  0  0
   15.6010   -6.2023    0.0000 H   0  0  0  0  0  0  0  0  0  0  0  0
    5.0656    4.7150    0.0000 H   0  0  0  0  0  0  0  0  0  0  0  0
    5.8626    4.7150    0.0000 H   0  0  0  0  0  0  0  0  0  0  0  0
   10.4482   -3.2274    0.0000 H   0  0  0  0  0  0  0  0  0  0  0  0
   10.0497   -3.9177    0.0000 H   0  0  0  0  0  0  0  0  0  0  0  0
   30.9774    3.1650    0.0000 H   0  0  0  0  0  0  0  0  0  0  0  0
   30.1803    3.1650    0.0000 H   0  0  0  0  0  0  0  0  0  0  0  0
   13.9123   -6.2274    0.0000 H   0  0  0  0  0  0  0  0  0  0  0  0
   13.5138   -6.9177    0.0000 H   0  0  0  0  0  0  0  0  0  0  0  0
    4.9966    6.1650    0.0000 H   0  0  0  0  0  0  0  0  0  0  0  0
    4.1996    6.1650    0.0000 H   0  0  0  0  0  0  0  0  0  0  0  0
   10.8723   -5.3926    0.0000 H   0  0  0  0  0  0  0  0  0  0  0  0
   11.2708   -4.7023    0.0000 H   0  0  0  0  0  0  0  0  0  0  0  0
   31.0463    1.7150    0.0000 H   0  0  0  0  0  0  0  0  0  0  0  0
   31.8434    1.7150    0.0000 H   0  0  0  0  0  0  0  0  0  0  0  0
   14.3364   -8.3926    0.0000 H   0  0  0  0  0  0  0  0  0  0  0  0
   14.7349   -7.7023    0.0000 H   0  0  0  0  0  0  0  0  0  0  0  0
    3.3335    4.7150    0.0000 H   0  0  0  0  0  0  0  0  0  0  0  0
    4.1306    4.7150    0.0000 H   0  0  0  0  0  0  0  0  0  0  0  0
    9.5822   -4.7274    0.0000 H   0  0  0  0  0  0  0  0  0  0  0  0
    9.1836   -5.4177    0.0000 H   0  0  0  0  0  0  0  0  0  0  0  0
   32.7094    3.1650    0.0000 H   0  0  0  0  0  0  0  0  0  0  0  0
   31.9124    3.1650    0.0000 H   0  0  0  0  0  0  0  0  0  0  0  0
   13.0463   -7.7274    0.0000 H   0  0  0  0  0  0  0  0  0  0  0  0
   12.6477   -8.4177    0.0000 H   0  0  0  0  0  0  0  0  0  0  0  0
    3.2646    6.1650    0.0000 H   0  0  0  0  0  0  0  0  0  0  0  0
    2.4675    6.1650    0.0000 H   0  0  0  0  0  0  0  0  0  0  0  0
    9.1742   -6.3100    0.0000 H   0  0  0  0  0  0  0  0  0  0  0  0
    9.7942   -6.9300    0.0000 H   0  0  0  0  0  0  0  0  0  0  0  0
   10.4142   -6.3100    0.0000 H   0  0  0  0  0  0  0  0  0  0  0  0
   32.8669    1.6531    0.0000 H   0  0  0  0  0  0  0  0  0  0  0  0
   33.7138    1.8800    0.0000 H   0  0  0  0  0  0  0  0  0  0  0  0
   33.4869    2.7269    0.0000 H   0  0  0  0  0  0  0  0  0  0  0  0
   12.6383   -9.3100    0.0000 H   0  0  0  0  0  0  0  0  0  0  0  0
   13.2583   -9.9300    0.0000 H   0  0  0  0  0  0  0  0  0  0  0  0
   13.8783   -9.3100    0.0000 H   0  0  0  0  0  0  0  0  0  0  0  0
    1.6900    5.7269    0.0000 H   0  0  0  0  0  0  0  0  0  0  0  0
    1.4631    4.8800    0.0000 H   0  0  0  0  0  0  0  0  0  0  0  0
    2.3100    4.6531    0.0000 H   0  0  0  0  0  0  0  0  0  0  0  0
  1  8  1  0  0  0  0
  1 15  1  0  0  0  0
  1 16  1  0  0  0  0
  1 19  2  0  0  0  0
  2 25  1  0  0  0  0
  2 33  1  0  0  0  0
  3 30  1  0  0  0  0
  3 32  1  0  0  0  0
  4 30  1  0  0  0  0
  4 34  1  0  0  0  0
  5 26  1  0  0  0  0
  5 38  1  0  0  0  0
  6 28  1  0  0  0  0
  6 39  1  0  0  0  0
  7 27  1  0  0  0  0
  7108  1  0  0  0  0
  8 33  1  0  0  0  0
  9 31  1  0  0  0  0
  9109  1  0  0  0  0
 10 35  1  0  0  0  0
 10119  1  0  0  0  0
 11 36  2  0  0  0  0
 12 37  2  0  0  0  0
 13 38  2  0  0  0  0
 14 39  2  0  0  0  0
 15141  1  0  0  0  0
 16142  1  0  0  0  0
 17 43  1  0  0  0  0
 17145  1  0  0  0  0
 18 45  1  0  0  0  0
 18146  1  0  0  0  0
 20 46  1  0  0  0  0
 20155  1  0  0  0  0
 21 47  1  0  0  0  0
 21156  1  0  0  0  0
 22 24  1  0  0  0  0
 22 36  1  0  0  0  0
 22104  1  0  0  0  0
 23 29  1  0  0  0  0
 23 37  1  0  0  0  0
 23105  1  0  0  0  0
 24 28  1  0  0  0  0
 24 30  1  0  0  0  0
 24 92  1  0  0  0  0
 25 27  1  0  0  0  0
 25 34  1  0  0  0  0
 25 93  1  0  0  0  0
 26 27  1  0  0  0  0
 26 29  1  0  0  0  0
 26 94  1  0  0  0  0
 27 95  1  0  0  0  0
 28 31  1  0  0  0  0
 28 96  1  0  0  0  0
 29 33  1  0  0  0  0
 29 97  1  0  0  0  0
 30 98  1  0  0  0  0
 31 32  1  0  0  0  0
 31 99  1  0  0  0  0
 32 35  1  0  0  0  0
 32100  1  0  0  0  0
 33101  1  0  0  0  0
 34102  1  0  0  0  0
 34103  1  0  0  0  0
 35106  1  0  0  0  0
 35107  1  0  0  0  0
 36 40  1  0  0  0  0
 37 41  1  0  0  0  0
 38 42  1  0  0  0  0
 39 44  1  0  0  0  0
 40 43  1  0  0  0  0
 40110  1  0  0  0  0
 40111  1  0  0  0  0
 41 45  1  0  0  0  0
 41112  1  0  0  0  0
 41113  1  0  0  0  0
 42 46  1  0  0  0  0
 42114  1  0  0  0  0
 42115  1  0  0  0  0
 43 48  1  0  0  0  0
 43116  1  0  0  0  0
 44 47  1  0  0  0  0
 44117  1  0  0  0  0
 44118  1  0  0  0  0
 45 49  1  0  0  0  0
 45120  1  0  0  0  0
 46 50  1  0  0  0  0
 46121  1  0  0  0  0
 47 51  1  0  0  0  0
 47122  1  0  0  0  0
 48 52  1  0  0  0  0
 48123  1  0  0  0  0
 48124  1  0  0  0  0
 49 53  1  0  0  0  0
 49125  1  0  0  0  0
 49126  1  0  0  0  0
 50 54  1  0  0  0  0
 50127  1  0  0  0  0
 50128  1  0  0  0  0
 51 55  1  0  0  0  0
 51129  1  0  0  0  0
 51130  1  0  0  0  0
 52 56  1  0  0  0  0
 52131  1  0  0  0  0
 52132  1  0  0  0  0
 53 57  1  0  0  0  0
 53133  1  0  0  0  0
 53134  1  0  0  0  0
 54 58  1  0  0  0  0
 54135  1  0  0  0  0
 54136  1  0  0  0  0
 55 59  1  0  0  0  0
 55137  1  0  0  0  0
 55138  1  0  0  0  0
 56 60  1  0  0  0  0
 56139  1  0  0  0  0
 56140  1  0  0  0  0
 57 61  1  0  0  0  0
 57143  1  0  0  0  0
 57144  1  0  0  0  0
 58 62  1  0  0  0  0
 58147  1  0  0  0  0
 58148  1  0  0  0  0
 59 63  1  0  0  0  0
 59149  1  0  0  0  0
 59150  1  0  0  0  0
 60 64  1  0  0  0  0
 60151  1  0  0  0  0
 60152  1  0  0  0  0
 61 65  1  0  0  0  0
 61153  1  0  0  0  0
 61154  1  0  0  0  0
 62 66  1  0  0  0  0
 62157  1  0  0  0  0
 62158  1  0  0  0  0
 63 67  1  0  0  0  0
 63159  1  0  0  0  0
 63160  1  0  0  0  0
 64 68  1  0  0  0  0
 64161  1  0  0  0  0
 64162  1  0  0  0  0
 65 69  1  0  0  0  0
 65163  1  0  0  0  0
 65164  1  0  0  0  0
 66 70  1  0  0  0  0
 66165  1  0  0  0  0
 66166  1  0  0  0  0
 67 71  1  0  0  0  0
 67167  1  0  0  0  0
 67168  1  0  0  0  0
 68 72  1  0  0  0  0
 68169  1  0  0  0  0
 68170  1  0  0  0  0
 69 73  1  0  0  0  0
 69171  1  0  0  0  0
 69172  1  0  0  0  0
 70 74  1  0  0  0  0
 70173  1  0  0  0  0
 70174  1  0  0  0  0
 71 75  1  0  0  0  0
 71175  1  0  0  0  0
 71176  1  0  0  0  0
 72 76  1  0  0  0  0
 72177  1  0  0  0  0
 72178  1  0  0  0  0
 73 77  1  0  0  0  0
 73179  1  0  0  0  0
 73180  1  0  0  0  0
 74 78  1  0  0  0  0
 74181  1  0  0  0  0
 74182  1  0  0  0  0
 75 79  1  0  0  0  0
 75183  1  0  0  0  0
 75184  1  0  0  0  0
 76 80  1  0  0  0  0
 76185  1  0  0  0  0
 76186  1  0  0  0  0
 77 81  1  0  0  0  0
 77187  1  0  0  0  0
 77188  1  0  0  0  0
 78 82  1  0  0  0  0
 78189  1  0  0  0  0
 78190  1  0  0  0  0
 79 83  1  0  0  0  0
 79191  1  0  0  0  0
 79192  1  0  0  0  0
 80 84  1  0  0  0  0
 80193  1  0  0  0  0
 80194  1  0  0  0  0
 81 85  1  0  0  0  0
 81195  1  0  0  0  0
 81196  1  0  0  0  0
 82 86  1  0  0  0  0
 82197  1  0  0  0  0
 82198  1  0  0  0  0
 83 87  1  0  0  0  0
 83199  1  0  0  0  0
 83200  1  0  0  0  0
 84 88  1  0  0  0  0
 84201  1  0  0  0  0
 84202  1  0  0  0  0
 85 89  1  0  0  0  0
 85203  1  0  0  0  0
 85204  1  0  0  0  0
 86 90  1  0  0  0  0
 86205  1  0  0  0  0
 86206  1  0  0  0  0
 87 91  1  0  0  0  0
 87207  1  0  0  0  0
 87208  1  0  0  0  0
 88209  1  0  0  0  0
 88210  1  0  0  0  0
 88211  1  0  0  0  0
 89212  1  0  0  0  0
 89213  1  0  0  0  0
 89214  1  0  0  0  0
 90215  1  0  0  0  0
 90216  1  0  0  0  0
 90217  1  0  0  0  0
 91218  1  0  0  0  0
 91219  1  0  0  0  0
 91220  1  0  0  0  0
M  END
> <PUBCHEM_COMPOUND_CID>
256

> <PUBCHEM_COMPOUND_CANONICALIZED>
1

> <PUBCHEM_CACTVS_COMPLEXITY>
1890

> <PUBCHEM_CACTVS_HBOND_ACCEPTOR>
20

> <PUBCHEM_CACTVS_HBOND_DONOR>
11

> <PUBCHEM_CACTVS_ROTATABLE_BOND>
60

> <PUBCHEM_CACTVS_SUBSKEYS>
AAADcfB/PgIAAAAAAAAAAAAAAAAAAAAAAAAkSAAAAAAAAAAAAAAAHgAQCCAACDzxgAcCCALABxAIQAGQGIAAAAAAAAAAAIEIAAATEBYAgAAnQAAHNgCXAAH4+K+AAAAAAAAAAAAAAAAAAAAAAAAAAAAAAA==

> <PUBCHEM_IUPAC_OPENEYE_NAME>
[5-hydroxy-2-[[3-hydroxy-5-(3-hydroxytetradecanoylamino)-4-(3-hydroxytetradecanoyloxy)-6-phosphonooxy-tetrahydropyran-2-yl]methoxy]-6-(hydroxymethyl)-3-(3-hydroxytetradecanoylamino)tetrahydropyran-4-yl] 3-hydroxytetradecanoate

> <PUBCHEM_IUPAC_CAS_NAME>
3-hydroxytetradecanoic acid [5-hydroxy-2-[[3-hydroxy-4-(3-hydroxy-1-oxotetradecoxy)-5-[(3-hydroxy-1-oxotetradecyl)amino]-6-phosphonooxy-2-oxanyl]methoxy]-6-(hydroxymethyl)-3-[(3-hydroxy-1-oxotetradecyl)amino]-4-oxanyl] ester

> <PUBCHEM_IUPAC_NAME_MARKUP>
[5-hydroxy-2-[[3-hydroxy-5-(3-hydroxytetradecanoylamino)-4-(3-hydroxytetradecanoyloxy)-6-phosphonooxyoxan-2-yl]methoxy]-6-(hydroxymethyl)-3-(3-hydroxytetradecanoylamino)oxan-4-yl] 3-hydroxytetradecanoate

> <PUBCHEM_IUPAC_NAME>
[5-hydroxy-2-[[3-hydroxy-5-(3-hydroxytetradecanoylamino)-4-(3-hydroxytetradecanoyloxy)-6-phosphonooxyoxan-2-yl]methoxy]-6-(hydroxymethyl)-3-(3-hydroxytetradecanoylamino)oxan-4-yl] 3-hydroxytetradecanoate

> <PUBCHEM_IUPAC_SYSTEMATIC_NAME>
[2-(hydroxymethyl)-3-oxidanyl-6-[[3-oxidanyl-5-(3-oxidanyltetradecanoylamino)-4-(3-oxidanyltetradecanoyloxy)-6-phosphonooxy-oxan-2-yl]methoxy]-5-(3-oxidanyltetradecanoylamino)oxan-4-yl] 3-oxidanyltetradecanoate

> <PUBCHEM_IUPAC_TRADITIONAL_NAME>
3-hydroxymyristic acid [5-hydroxy-2-[[3-hydroxy-5-(3-hydroxytetradecanoylamino)-4-(3-hydroxytetradecanoyloxy)-6-phosphonooxy-tetrahydropyran-2-yl]methoxy]-3-(3-hydroxytetradecanoylamino)-6-methylol-tetrahydropyran-4-yl] ester

> <PUBCHEM_IUPAC_INCHI>
InChI=1S/C68H129N2O20P/c1-5-9-13-17-21-25-29-33-37-41-51(72)45-57(76)69-61-65(88-59(78)47-53(74)43-39-35-31-27-23-19-15-11-7-3)63(80)55(49-71)86-67(61)85-50-56-64(81)66(89-60(79)48-54(75)44-40-36-32-28-24-20-16-12-8-4)62(68(87-56)90-91(82,83)84)70-58(77)46-52(73)42-38-34-30-26-22-18-14-10-6-2/h51-56,61-68,71-75,80-81H,5-50H2,1-4H3,(H,69,76)(H,70,77)(H2,82,83,84)

> <PUBCHEM_IUPAC_INCHIKEY>
HLDJGHAAKRKPAV-UHFFFAOYSA-N

> <PUBCHEM_XLOGP3_AA>
16

> <PUBCHEM_EXACT_MASS>
1324.88763151

> <PUBCHEM_MOLECULAR_FORMULA>
C68H129N2O20P

> <PUBCHEM_MOLECULAR_WEIGHT>
1325.7

> <PUBCHEM_SMILES>
CCCCCCCCCCCC(CC(=O)NC1C(C(C(OC1OCC2C(C(C(C(O2)OP(=O)(O)O)NC(=O)CC(CCCCCCCCCCC)O)OC(=O)CC(CCCCCCCCCCC)O)O)CO)O)OC(=O)CC(CCCCCCCCCCC)O)O

> <PUBCHEM_CONNECTIVITY_SMILES>
CCCCCCCCCCCC(CC(=O)NC1C(C(C(OC1OCC2C(C(C(C(O2)OP(=O)(O)O)NC(=O)CC(CCCCCCCCCCC)O)OC(=O)CC(CCCCCCCCCCC)O)O)CO)O)OC(=O)CC(CCCCCCCCCCC)O)O

> <PUBCHEM_CACTVS_TPSA>
347

> <PUBCHEM_MONOISOTOPIC_WEIGHT>
1324.88763151

> <PUBCHEM_TOTAL_CHARGE>
0

> <PUBCHEM_HEAVY_ATOM_COUNT>
91

> <PUBCHEM_ATOM_DEF_STEREO_COUNT>
0

> <PUBCHEM_ATOM_UDEF_STEREO_COUNT>
14

> <PUBCHEM_BOND_DEF_STEREO_COUNT>
0

> <PUBCHEM_BOND_UDEF_STEREO_COUNT>
0

> <PUBCHEM_ISOTOPIC_ATOM_COUNT>
0

> <PUBCHEM_COMPONENT_COUNT>
1

> <PUBCHEM_CACTVS_TAUTO_COUNT>
-1

> <PUBCHEM_COORDINATE_TYPE>
1
5
255

> <PUBCHEM_BONDANNOTATIONS>
43  17  3
45  18  3
46  20  3
47  21  3
24  22  3
29  23  3
25  34  3
32  35  3
30  4  3
26  5  3
28  6  3
27  7  3
33  8  3
31  9  3

$$$$
