759
  -OEChem-08152603112D

124127  0     1  0  0  0  0  0999 V2000
    6.8671   -6.7985    0.0000 P   0  0  0  0  0  0  0  0  0  0  0  0
    8.5991    2.2015    0.0000 O   0  0  0  0  0  0  0  0  0  0  0  0
    7.7331    3.7015    0.0000 O   0  0  0  0  0  0  0  0  0  0  0  0
    7.7331   -0.2985    0.0000 O   0  0  0  0  0  0  0  0  0  0  0  0
    6.0010   -0.2985    0.0000 O   0  0  0  0  0  0  0  0  0  0  0  0
   10.3312    4.2015    0.0000 O   0  0  0  0  0  0  0  0  0  0  0  0
    4.2690   -2.2985    0.0000 O   0  0  0  0  0  0  0  0  0  0  0  0
    6.0010    0.7015    0.0000 O   0  0  0  0  0  0  0  0  0  0  0  0
    7.7331    5.7015    0.0000 O   0  0  0  0  0  0  0  0  0  0  0  0
    5.1350   -3.7985    0.0000 O   0  0  0  0  0  0  0  0  0  0  0  0
    7.7331   -2.2985    0.0000 O   0  0  0  0  0  0  0  0  0  0  0  0
    6.0010   -3.2985    0.0000 O   0  0  0  0  0  0  0  0  0  0  0  0
   10.3312    1.2015    0.0000 O   0  0  0  0  0  0  0  0  0  0  0  0
    2.5369   -3.2985    0.0000 O   0  0  0  0  0  0  0  0  0  0  0  0
   10.3312    2.2015    0.0000 O   0  0  0  0  0  0  0  0  0  0  0  0
    4.2690    0.7015    0.0000 O   0  0  0  0  0  0  0  0  0  0  0  0
    2.5369   -5.2985    0.0000 O   0  0  0  0  0  0  0  0  0  0  0  0
    4.2690   -6.2985    0.0000 O   0  0  0  0  0  0  0  0  0  0  0  0
    6.0010   -6.2985    0.0000 O   0  0  0  0  0  0  0  0  0  0  0  0
    6.8671    4.2015    0.0000 O   0  0  0  0  0  0  0  0  0  0  0  0
    7.7331    6.7015    0.0000 O   0  0  0  0  0  0  0  0  0  0  0  0
   12.0632    4.2015    0.0000 O   0  0  0  0  0  0  0  0  0  0  0  0
    7.7331   -7.2985    0.0000 O   0  0  0  0  0  0  0  0  0  0  0  0
    6.3671   -7.6646    0.0000 O   0  0  0  0  0  0  0  0  0  0  0  0
    7.3671   -5.9325    0.0000 O   0  0  0  0  0  0  0  0  0  0  0  0
   12.9292    3.7015    0.0000 O   0  0  0  0  0  0  0  0  0  0  0  0
   13.7953    7.2015    0.0000 O   0  0  0  0  0  0  0  0  0  0  0  0
    6.0010    2.7015    0.0000 N   0  0  0  0  0  0  0  0  0  0  0  0
    9.4651    6.7015    0.0000 N   0  0  0  0  0  0  0  0  0  0  0  0
   11.1972    5.7015    0.0000 N   0  0  0  0  0  0  0  0  0  0  0  0
   14.6613    5.7015    0.0000 N   0  0  0  0  0  0  0  0  0  0  0  0
   14.6613    3.7015    0.0000 N   0  0  0  0  0  0  0  0  0  0  0  0
    7.7331    0.7015    0.0000 C   0  0  3  0  0  0  0  0  0  0  0  0
    6.8671    2.2015    0.0000 C   0  0  3  0  0  0  0  0  0  0  0  0
    6.8671    1.2015    0.0000 C   0  0  3  0  0  0  0  0  0  0  0  0
    7.7331    2.7015    0.0000 C   0  0  3  0  0  0  0  0  0  0  0  0
    8.5991    1.2015    0.0000 C   0  0  3  0  0  0  0  0  0  0  0  0
    8.5991    4.2015    0.0000 C   0  0  3  0  0  0  0  0  0  0  0  0
    8.5991    5.2015    0.0000 C   0  0  3  0  0  0  0  0  0  0  0  0
    6.8671   -0.7985    0.0000 C   0  0  3  0  0  0  0  0  0  0  0  0
    5.1350   -1.7985    0.0000 C   0  0  3  0  0  0  0  0  0  0  0  0
    9.4651    5.7015    0.0000 C   0  0  3  0  0  0  0  0  0  0  0  0
    9.4651    3.7015    0.0000 C   0  0  3  0  0  0  0  0  0  0  0  0
    6.8671   -1.7985    0.0000 C   0  0  3  0  0  0  0  0  0  0  0  0
    6.0010   -2.2985    0.0000 C   0  0  3  0  0  0  0  0  0  0  0  0
    5.1350   -0.7985    0.0000 C   0  0  3  0  0  0  0  0  0  0  0  0
   10.3312    5.2015    0.0000 C   0  0  3  0  0  0  0  0  0  0  0  0
    9.4651    0.7015    0.0000 C   0  0  0  0  0  0  0  0  0  0  0  0
    4.2690   -3.2985    0.0000 C   0  0  3  0  0  0  0  0  0  0  0  0
    3.4030   -3.7985    0.0000 C   0  0  3  0  0  0  0  0  0  0  0  0
    9.4651    2.7015    0.0000 C   0  0  0  0  0  0  0  0  0  0  0  0
    4.2690   -0.2985    0.0000 C   0  0  0  0  0  0  0  0  0  0  0  0
    3.4030   -4.7985    0.0000 C   0  0  3  0  0  0  0  0  0  0  0  0
    4.2690   -5.2985    0.0000 C   0  0  3  0  0  0  0  0  0  0  0  0
    5.1350   -4.7985    0.0000 C   0  0  3  0  0  0  0  0  0  0  0  0
    6.0010    3.7015    0.0000 C   0  0  0  0  0  0  0  0  0  0  0  0
    6.0010   -5.2985    0.0000 C   0  0  0  0  0  0  0  0  0  0  0  0
    8.5991    7.2015    0.0000 C   0  0  0  0  0  0  0  0  0  0  0  0
   12.0632    5.2015    0.0000 C   0  0  0  0  0  0  0  0  0  0  0  0
    5.1350    4.2015    0.0000 C   0  0  0  0  0  0  0  0  0  0  0  0
   12.9292    5.7015    0.0000 C   0  0  0  0  0  0  0  0  0  0  0  0
    8.5991    8.2015    0.0000 C   0  0  0  0  0  0  0  0  0  0  0  0
   13.7953    5.2015    0.0000 C   0  0  3  0  0  0  0  0  0  0  0  0
   13.7953    4.2015    0.0000 C   0  0  0  0  0  0  0  0  0  0  0  0
   14.6613    6.7015    0.0000 C   0  0  0  0  0  0  0  0  0  0  0  0
   15.5273    7.2015    0.0000 C   0  0  0  0  0  0  0  0  0  0  0  0
    7.1962    0.3915    0.0000 H   0  0  0  0  0  0  0  0  0  0  0  0
    6.8671    2.8215    0.0000 H   0  0  0  0  0  0  0  0  0  0  0  0
    6.3301    1.5115    0.0000 H   0  0  0  0  0  0  0  0  0  0  0  0
    7.1962    3.0115    0.0000 H   0  0  0  0  0  0  0  0  0  0  0  0
    9.1360    1.5115    0.0000 H   0  0  0  0  0  0  0  0  0  0  0  0
    8.5991    3.5815    0.0000 H   0  0  0  0  0  0  0  0  0  0  0  0
    8.5991    5.8215    0.0000 H   0  0  0  0  0  0  0  0  0  0  0  0
    7.4040   -1.1085    0.0000 H   0  0  0  0  0  0  0  0  0  0  0  0
    5.1350   -2.4185    0.0000 H   0  0  0  0  0  0  0  0  0  0  0  0
    8.9282    6.0115    0.0000 H   0  0  0  0  0  0  0  0  0  0  0  0
    6.8671   -2.4185    0.0000 H   0  0  0  0  0  0  0  0  0  0  0  0
   10.0021    3.3915    0.0000 H   0  0  0  0  0  0  0  0  0  0  0  0
    5.4641   -2.6085    0.0000 H   0  0  0  0  0  0  0  0  0  0  0  0
    5.1350   -0.1785    0.0000 H   0  0  0  0  0  0  0  0  0  0  0  0
   10.3312    5.8215    0.0000 H   0  0  0  0  0  0  0  0  0  0  0  0
    9.0666    0.2265    0.0000 H   0  0  0  0  0  0  0  0  0  0  0  0
    9.8637    0.2265    0.0000 H   0  0  0  0  0  0  0  0  0  0  0  0
    5.4641    2.3915    0.0000 H   0  0  0  0  0  0  0  0  0  0  0  0
    3.7320   -2.9885    0.0000 H   0  0  0  0  0  0  0  0  0  0  0  0
    3.9399   -4.1085    0.0000 H   0  0  0  0  0  0  0  0  0  0  0  0
    8.8546    2.8091    0.0000 H   0  0  0  0  0  0  0  0  0  0  0  0
    9.2531    2.1189    0.0000 H   0  0  0  0  0  0  0  0  0  0  0  0
    3.6584   -0.1909    0.0000 H   0  0  0  0  0  0  0  0  0  0  0  0
    4.0569   -0.8811    0.0000 H   0  0  0  0  0  0  0  0  0  0  0  0
    3.4030   -5.4185    0.0000 H   0  0  0  0  0  0  0  0  0  0  0  0
    5.4641    1.0115    0.0000 H   0  0  0  0  0  0  0  0  0  0  0  0
    4.8059   -5.6085    0.0000 H   0  0  0  0  0  0  0  0  0  0  0  0
   10.0021    7.0115    0.0000 H   0  0  0  0  0  0  0  0  0  0  0  0
    5.6720   -4.4885    0.0000 H   0  0  0  0  0  0  0  0  0  0  0  0
   11.1972    6.3215    0.0000 H   0  0  0  0  0  0  0  0  0  0  0  0
    7.1962    5.3915    0.0000 H   0  0  0  0  0  0  0  0  0  0  0  0
    8.2700   -1.9885    0.0000 H   0  0  0  0  0  0  0  0  0  0  0  0
    6.5380   -3.6085    0.0000 H   0  0  0  0  0  0  0  0  0  0  0  0
    6.6116   -5.4062    0.0000 H   0  0  0  0  0  0  0  0  0  0  0  0
    6.2131   -4.7159    0.0000 H   0  0  0  0  0  0  0  0  0  0  0  0
   10.8681    0.8915    0.0000 H   0  0  0  0  0  0  0  0  0  0  0  0
    2.0000   -3.6085    0.0000 H   0  0  0  0  0  0  0  0  0  0  0  0
   10.8681    2.5115    0.0000 H   0  0  0  0  0  0  0  0  0  0  0  0
    3.7320    1.0115    0.0000 H   0  0  0  0  0  0  0  0  0  0  0  0
    2.5369   -5.9185    0.0000 H   0  0  0  0  0  0  0  0  0  0  0  0
    3.7320   -6.6085    0.0000 H   0  0  0  0  0  0  0  0  0  0  0  0
    5.4450    4.7384    0.0000 H   0  0  0  0  0  0  0  0  0  0  0  0
    4.5981    4.5115    0.0000 H   0  0  0  0  0  0  0  0  0  0  0  0
    4.8250    3.6645    0.0000 H   0  0  0  0  0  0  0  0  0  0  0  0
   13.3278    6.1764    0.0000 H   0  0  0  0  0  0  0  0  0  0  0  0
   12.5307    6.1764    0.0000 H   0  0  0  0  0  0  0  0  0  0  0  0
    9.2191    8.2015    0.0000 H   0  0  0  0  0  0  0  0  0  0  0  0
    8.5991    8.8215    0.0000 H   0  0  0  0  0  0  0  0  0  0  0  0
    7.9791    8.2015    0.0000 H   0  0  0  0  0  0  0  0  0  0  0  0
   14.3322    4.8915    0.0000 H   0  0  0  0  0  0  0  0  0  0  0  0
   15.1982    5.3915    0.0000 H   0  0  0  0  0  0  0  0  0  0  0  0
    7.7331   -7.9185    0.0000 H   0  0  0  0  0  0  0  0  0  0  0  0
    6.6771   -8.2015    0.0000 H   0  0  0  0  0  0  0  0  0  0  0  0
   14.6613    3.0815    0.0000 H   0  0  0  0  0  0  0  0  0  0  0  0
   15.1982    4.0115    0.0000 H   0  0  0  0  0  0  0  0  0  0  0  0
   15.8373    6.6646    0.0000 H   0  0  0  0  0  0  0  0  0  0  0  0
   16.0643    7.5115    0.0000 H   0  0  0  0  0  0  0  0  0  0  0  0
   15.2173    7.7384    0.0000 H   0  0  0  0  0  0  0  0  0  0  0  0
  1 19  1  0  0  0  0
  1 23  1  0  0  0  0
  1 24  1  0  0  0  0
  1 25  2  0  0  0  0
  2 36  1  0  0  0  0
  2 37  1  0  0  0  0
  3 36  1  0  0  0  0
  3 38  1  0  0  0  0
  4 33  1  0  0  0  0
  4 40  1  0  0  0  0
  5 40  1  0  0  0  0
  5 46  1  0  0  0  0
  6 43  1  0  0  0  0
  6 47  1  0  0  0  0
  7 41  1  0  0  0  0
  7 49  1  0  0  0  0
  8 35  1  0  0  0  0
  8 92  1  0  0  0  0
  9 39  1  0  0  0  0
  9 97  1  0  0  0  0
 10 49  1  0  0  0  0
 10 55  1  0  0  0  0
 11 44  1  0  0  0  0
 11 98  1  0  0  0  0
 12 45  1  0  0  0  0
 12 99  1  0  0  0  0
 13 48  1  0  0  0  0
 13102  1  0  0  0  0
 14 50  1  0  0  0  0
 14103  1  0  0  0  0
 15 51  1  0  0  0  0
 15104  1  0  0  0  0
 16 52  1  0  0  0  0
 16105  1  0  0  0  0
 17 53  1  0  0  0  0
 17106  1  0  0  0  0
 18 54  1  0  0  0  0
 18107  1  0  0  0  0
 19 57  1  0  0  0  0
 20 56  2  0  0  0  0
 21 58  2  0  0  0  0
 22 59  2  0  0  0  0
 23118  1  0  0  0  0
 24119  1  0  0  0  0
 26 64  2  0  0  0  0
 27 65  2  0  0  0  0
 28 34  1  0  0  0  0
 28 56  1  0  0  0  0
 28 84  1  0  0  0  0
 29 42  1  0  0  0  0
 29 58  1  0  0  0  0
 29 94  1  0  0  0  0
 30 47  1  0  0  0  0
 30 59  1  0  0  0  0
 30 96  1  0  0  0  0
 31 63  1  0  0  0  0
 31 65  1  0  0  0  0
 31117  1  0  0  0  0
 32 64  1  0  0  0  0
 32120  1  0  0  0  0
 32121  1  0  0  0  0
 33 35  1  0  0  0  0
 33 37  1  0  0  0  0
 33 67  1  0  0  0  0
 34 35  1  0  0  0  0
 34 36  1  0  0  0  0
 34 68  1  0  0  0  0
 35 69  1  0  0  0  0
 36 70  1  0  0  0  0
 37 48  1  0  0  0  0
 37 71  1  0  0  0  0
 38 39  1  0  0  0  0
 38 43  1  0  0  0  0
 38 72  1  0  0  0  0
 39 42  1  0  0  0  0
 39 73  1  0  0  0  0
 40 44  1  0  0  0  0
 40 74  1  0  0  0  0
 41 45  1  0  0  0  0
 41 46  1  0  0  0  0
 41 75  1  0  0  0  0
 42 47  1  0  0  0  0
 42 76  1  0  0  0  0
 43 51  1  0  0  0  0
 43 78  1  0  0  0  0
 44 45  1  0  0  0  0
 44 77  1  0  0  0  0
 45 79  1  0  0  0  0
 46 52  1  0  0  0  0
 46 80  1  0  0  0  0
 47 81  1  0  0  0  0
 48 82  1  0  0  0  0
 48 83  1  0  0  0  0
 49 50  1  0  0  0  0
 49 85  1  0  0  0  0
 50 53  1  0  0  0  0
 50 86  1  0  0  0  0
 51 87  1  0  0  0  0
 51 88  1  0  0  0  0
 52 89  1  0  0  0  0
 52 90  1  0  0  0  0
 53 54  1  0  0  0  0
 53 91  1  0  0  0  0
 54 55  1  0  0  0  0
 54 93  1  0  0  0  0
 55 57  1  0  0  0  0
 55 95  1  0  0  0  0
 56 60  1  0  0  0  0
 57100  1  0  0  0  0
 57101  1  0  0  0  0
 58 62  1  0  0  0  0
 59 61  1  0  0  0  0
 60108  1  0  0  0  0
 60109  1  0  0  0  0
 60110  1  0  0  0  0
 61 63  1  0  0  0  0
 61111  1  0  0  0  0
 61112  1  0  0  0  0
 62113  1  0  0  0  0
 62114  1  0  0  0  0
 62115  1  0  0  0  0
 63 64  1  0  0  0  0
 63116  1  0  0  0  0
 65 66  1  0  0  0  0
 66122  1  0  0  0  0
 66123  1  0  0  0  0
 66124  1  0  0  0  0
M  END
> <PUBCHEM_COMPOUND_CID>
759

> <PUBCHEM_COMPOUND_CANONICALIZED>
1

> <PUBCHEM_CACTVS_COMPLEXITY>
1720

> <PUBCHEM_CACTVS_HBOND_ACCEPTOR>
26

> <PUBCHEM_CACTVS_HBOND_DONOR>
17

> <PUBCHEM_CACTVS_ROTATABLE_BOND>
19

> <PUBCHEM_CACTVS_SUBSKEYS>
AAADcfB/vgIAAAAAAAAAAAAAAAAAAAAAAAAkSJEgAAAAAAAAAAAAHgAQCCAACDzxgAcCCALABxAIQAEQEIAAAAAAAAAAAIGIAAETUBoAwCA/QAAHFgCXAAH1cA8AAAAAAAAAAAAAAAAAAAAAAAAAAAAAAA==

> <PUBCHEM_IUPAC_OPENEYE_NAME>
[6-[6-[5-acetamido-6-[5-acetamido-6-[(3-acetamido-4-amino-4-oxo-butanoyl)amino]-4-hydroxy-2-(hydroxymethyl)tetrahydropyran-3-yl]oxy-4-hydroxy-2-(hydroxymethyl)tetrahydropyran-3-yl]oxy-4,5-dihydroxy-2-(hydroxymethyl)tetrahydropyran-3-yl]oxy-3,4,5-trihydroxy-tetrahydropyran-2-yl]methyl dihydrogen phosphate

> <PUBCHEM_IUPAC_CAS_NAME>
[6-[[6-[[5-acetamido-6-[[5-acetamido-6-[(3-acetamido-4-amino-1,4-dioxobutyl)amino]-4-hydroxy-2-(hydroxymethyl)-3-oxanyl]oxy]-4-hydroxy-2-(hydroxymethyl)-3-oxanyl]oxy]-4,5-dihydroxy-2-(hydroxymethyl)-3-oxanyl]oxy]-3,4,5-trihydroxy-2-oxanyl]methyl dihydrogen phosphate

> <PUBCHEM_IUPAC_NAME_MARKUP>
[6-[6-[5-acetamido-6-[5-acetamido-6-[(3-acetamido-4-amino-4-oxobutanoyl)amino]-4-hydroxy-2-(hydroxymethyl)oxan-3-yl]oxy-4-hydroxy-2-(hydroxymethyl)oxan-3-yl]oxy-4,5-dihydroxy-2-(hydroxymethyl)oxan-3-yl]oxy-3,4,5-trihydroxyoxan-2-yl]methyl dihydrogen phosphate

> <PUBCHEM_IUPAC_NAME>
[6-[6-[5-acetamido-6-[5-acetamido-6-[(3-acetamido-4-amino-4-oxobutanoyl)amino]-4-hydroxy-2-(hydroxymethyl)oxan-3-yl]oxy-4-hydroxy-2-(hydroxymethyl)oxan-3-yl]oxy-4,5-dihydroxy-2-(hydroxymethyl)oxan-3-yl]oxy-3,4,5-trihydroxyoxan-2-yl]methyl dihydrogen phosphate

> <PUBCHEM_IUPAC_SYSTEMATIC_NAME>
[6-[6-[5-acetamido-6-[5-acetamido-6-[(3-acetamido-4-azanyl-4-oxidanylidene-butanoyl)amino]-2-(hydroxymethyl)-4-oxidanyl-oxan-3-yl]oxy-2-(hydroxymethyl)-4-oxidanyl-oxan-3-yl]oxy-2-(hydroxymethyl)-4,5-bis(oxidanyl)oxan-3-yl]oxy-3,4,5-tris(oxidanyl)oxan-2-yl]methyl dihydrogen phosphate

> <PUBCHEM_IUPAC_TRADITIONAL_NAME>
[6-[6-[5-acetamido-6-[5-acetamido-6-[(3-acetamido-4-amino-4-keto-butanoyl)amino]-4-hydroxy-2-methylol-tetrahydropyran-3-yl]oxy-4-hydroxy-2-methylol-tetrahydropyran-3-yl]oxy-4,5-dihydroxy-2-methylol-tetrahydropyran-3-yl]oxy-3,4,5-trihydroxy-tetrahydropyran-2-yl]methyl dihydrogen phosphate

> <PUBCHEM_IUPAC_INCHI>
InChI=1S/C34H58N5O26P/c1-9(43)36-12(30(35)54)4-17(46)39-31-18(37-10(2)44)21(48)27(13(5-40)59-31)63-32-19(38-11(3)45)22(49)28(14(6-41)60-32)64-34-26(53)24(51)29(15(7-42)61-34)65-33-25(52)23(50)20(47)16(62-33)8-58-66(55,56)57/h12-16,18-29,31-34,40-42,47-53H,4-8H2,1-3H3,(H2,35,54)(H,36,43)(H,37,44)(H,38,45)(H,39,46)(H2,55,56,57)

> <PUBCHEM_IUPAC_INCHIKEY>
HCAJSENPKKZRLZ-UHFFFAOYSA-N

> <PUBCHEM_XLOGP3_AA>
-12.4

> <PUBCHEM_EXACT_MASS>
983.31076397

> <PUBCHEM_MOLECULAR_FORMULA>
C34H58N5O26P

> <PUBCHEM_MOLECULAR_WEIGHT>
983.8

> <PUBCHEM_SMILES>
CC(=O)NC1C(C(C(OC1NC(=O)CC(C(=O)N)NC(=O)C)CO)OC2C(C(C(C(O2)CO)OC3C(C(C(C(O3)CO)OC4C(C(C(C(O4)COP(=O)(O)O)O)O)O)O)O)O)NC(=O)C)O

> <PUBCHEM_CONNECTIVITY_SMILES>
CC(=O)NC1C(C(C(OC1NC(=O)CC(C(=O)N)NC(=O)C)CO)OC2C(C(C(C(O2)CO)OC3C(C(C(C(O3)CO)OC4C(C(C(C(O4)COP(=O)(O)O)O)O)O)O)O)O)NC(=O)C)O

> <PUBCHEM_CACTVS_TPSA>
493

> <PUBCHEM_MONOISOTOPIC_WEIGHT>
983.31076397

> <PUBCHEM_TOTAL_CHARGE>
0

> <PUBCHEM_HEAVY_ATOM_COUNT>
66

> <PUBCHEM_ATOM_DEF_STEREO_COUNT>
0

> <PUBCHEM_ATOM_UDEF_STEREO_COUNT>
21

> <PUBCHEM_BOND_DEF_STEREO_COUNT>
0

> <PUBCHEM_BOND_UDEF_STEREO_COUNT>
0

> <PUBCHEM_ISOTOPIC_ATOM_COUNT>
0

> <PUBCHEM_COMPONENT_COUNT>
1

> <PUBCHEM_CACTVS_TAUTO_COUNT>
-1

> <PUBCHEM_COORDINATE_TYPE>
1
5
255

> <PUBCHEM_BONDANNOTATIONS>
44  11  3
45  12  3
50  14  3
53  17  3
54  18  3
34  28  3
42  29  3
36  3  3
38  3  3
47  30  3
37  48  3
33  4  3
40  4  3
43  51  3
46  52  3
55  57  3
63  61  3
41  7  3
49  7  3
35  8  3
39  9  3

$$$$
