927
  -OEChem-08152603292D

 58 61  0     1  0  0  0  0  0999 V2000
    8.4752    2.2226    0.0000 P   0  0  3  0  0  0  0  0  0  0  0  0
   10.1980    2.4007    0.0000 P   0  0  3  0  0  0  0  0  0  0  0  0
    5.9405    0.4582    0.0000 O   0  0  0  0  0  0  0  0  0  0  0  0
    3.4026    0.9626    0.0000 O   0  0  0  0  0  0  0  0  0  0  0  0
    4.6844    2.7204    0.0000 O   0  0  0  0  0  0  0  0  0  0  0  0
   13.0400    1.1919    0.0000 O   0  0  0  0  0  0  0  0  0  0  0  0
    7.6651    1.6362    0.0000 O   0  0  0  0  0  0  0  0  0  0  0  0
   13.8069    3.6633    0.0000 O   0  0  0  0  0  0  0  0  0  0  0  0
   15.4211    2.2047    0.0000 O   0  0  0  0  0  0  0  0  0  0  0  0
   11.1109    1.9924    0.0000 O   0  0  0  0  0  0  0  0  0  0  0  0
    9.2852    2.8090    0.0000 O   0  0  0  0  0  0  0  0  0  0  0  0
    9.0615    1.4126    0.0000 O   0  0  0  0  0  0  0  0  0  0  0  0
    7.8888    3.0326    0.0000 O   0  0  0  0  0  0  0  0  0  0  0  0
   10.6063    3.3135    0.0000 O   0  0  0  0  0  0  0  0  0  0  0  0
    9.7897    1.4878    0.0000 O   0  0  0  0  0  0  0  0  0  0  0  0
    4.6783   -0.7997    0.0000 N   0  0  0  0  0  0  0  0  0  0  0  0
    4.6783   -2.4092    0.0000 N   0  0  0  0  0  0  0  0  0  0  0  0
    2.8660   -0.6045    0.0000 N   0  0  0  0  0  0  0  0  0  0  0  0
    2.0000   -2.1045    0.0000 N   0  0  0  0  0  0  0  0  0  0  0  0
    2.8660   -3.6045    0.0000 N   0  0  0  0  0  0  0  0  0  0  0  0
    4.4026    0.9608    0.0000 C   0  0  3  0  0  0  0  0  0  0  0  0
    4.9917    1.7688    0.0000 C   0  0  3  0  0  0  0  0  0  0  0  0
    4.9889    0.1508    0.0000 C   0  0  3  0  0  0  0  0  0  0  0  0
    5.9422    1.4582    0.0000 C   0  0  3  0  0  0  0  0  0  0  0  0
    6.7523    2.0445    0.0000 C   0  0  0  0  0  0  0  0  0  0  0  0
   13.7006    2.6689    0.0000 C   0  0  3  0  0  0  0  0  0  0  0  0
   12.8337    2.1704    0.0000 C   0  0  3  0  0  0  0  0  0  0  0  0
   14.4426    1.9985    0.0000 C   0  0  3  0  0  0  0  0  0  0  0  0
   14.0343    1.0857    0.0000 C   0  0  0  0  0  0  0  0  0  0  0  0
    3.7320   -1.1045    0.0000 C   0  0  0  0  0  0  0  0  0  0  0  0
    5.2619   -1.6045    0.0000 C   0  0  0  0  0  0  0  0  0  0  0  0
   11.9209    2.5787    0.0000 C   0  0  0  0  0  0  0  0  0  0  0  0
    3.7320   -2.1045    0.0000 C   0  0  0  0  0  0  0  0  0  0  0  0
    2.8660   -2.6045    0.0000 C   0  0  0  0  0  0  0  0  0  0  0  0
    2.0000   -1.1045    0.0000 C   0  0  0  0  0  0  0  0  0  0  0  0
    4.1220    1.5137    0.0000 H   0  0  0  0  0  0  0  0  0  0  0  0
    5.4309    2.2065    0.0000 H   0  0  0  0  0  0  0  0  0  0  0  0
    5.4266   -0.2884    0.0000 H   0  0  0  0  0  0  0  0  0  0  0  0
    6.4942    1.1757    0.0000 H   0  0  0  0  0  0  0  0  0  0  0  0
    7.0999    2.5580    0.0000 H   0  0  0  0  0  0  0  0  0  0  0  0
    6.3070    2.4760    0.0000 H   0  0  0  0  0  0  0  0  0  0  0  0
   13.1812    3.0075    0.0000 H   0  0  0  0  0  0  0  0  0  0  0  0
   12.3512    1.7811    0.0000 H   0  0  0  0  0  0  0  0  0  0  0  0
   14.6041    2.5971    0.0000 H   0  0  0  0  0  0  0  0  0  0  0  0
   13.9044    0.4794    0.0000 H   0  0  0  0  0  0  0  0  0  0  0  0
   14.6236    0.8931    0.0000 H   0  0  0  0  0  0  0  0  0  0  0  0
    3.0935    1.5000    0.0000 H   0  0  0  0  0  0  0  0  0  0  0  0
    5.1000    3.1804    0.0000 H   0  0  0  0  0  0  0  0  0  0  0  0
    5.8819   -1.6045    0.0000 H   0  0  0  0  0  0  0  0  0  0  0  0
   12.2685    3.0922    0.0000 H   0  0  0  0  0  0  0  0  0  0  0  0
   11.4757    3.0102    0.0000 H   0  0  0  0  0  0  0  0  0  0  0  0
   14.3737    3.9145    0.0000 H   0  0  0  0  0  0  0  0  0  0  0  0
   15.8352    1.7433    0.0000 H   0  0  0  0  0  0  0  0  0  0  0  0
    1.4631   -0.7945    0.0000 H   0  0  0  0  0  0  0  0  0  0  0  0
    8.8084    0.8466    0.0000 H   0  0  0  0  0  0  0  0  0  0  0  0
    2.3291   -3.9145    0.0000 H   0  0  0  0  0  0  0  0  0  0  0  0
    3.4030   -3.9145    0.0000 H   0  0  0  0  0  0  0  0  0  0  0  0
   10.2428    3.8157    0.0000 H   0  0  0  0  0  0  0  0  0  0  0  0
  1  7  1  0  0  0  0
  1 11  1  0  0  0  0
  1 12  1  0  0  0  0
  1 13  2  0  0  0  0
  2 10  1  0  0  0  0
  2 11  1  0  0  0  0
  2 14  1  0  0  0  0
  2 15  2  0  0  0  0
  3 23  1  0  0  0  0
  3 24  1  0  0  0  0
  4 21  1  0  0  0  0
  4 47  1  0  0  0  0
  5 22  1  0  0  0  0
  5 48  1  0  0  0  0
  6 27  1  0  0  0  0
  6 29  1  0  0  0  0
  7 25  1  0  0  0  0
  8 26  1  0  0  0  0
  8 52  1  0  0  0  0
  9 28  1  0  0  0  0
  9 53  1  0  0  0  0
 10 32  1  0  0  0  0
 12 55  1  0  0  0  0
 14 58  1  0  0  0  0
 16 23  1  0  0  0  0
 16 30  1  0  0  0  0
 16 31  1  0  0  0  0
 17 31  2  0  0  0  0
 17 33  1  0  0  0  0
 18 30  2  0  0  0  0
 18 35  1  0  0  0  0
 19 34  1  0  0  0  0
 19 35  2  0  0  0  0
 20 34  1  0  0  0  0
 20 56  1  0  0  0  0
 20 57  1  0  0  0  0
 21 22  1  0  0  0  0
 21 23  1  0  0  0  0
 21 36  1  0  0  0  0
 22 24  1  0  0  0  0
 22 37  1  0  0  0  0
 23 38  1  0  0  0  0
 24 25  1  0  0  0  0
 24 39  1  0  0  0  0
 25 40  1  0  0  0  0
 25 41  1  0  0  0  0
 26 27  1  0  0  0  0
 26 28  1  0  0  0  0
 26 42  1  0  0  0  0
 27 32  1  0  0  0  0
 27 43  1  0  0  0  0
 28 29  1  0  0  0  0
 28 44  1  0  0  0  0
 29 45  1  0  0  0  0
 29 46  1  0  0  0  0
 30 33  1  0  0  0  0
 31 49  1  0  0  0  0
 32 50  1  0  0  0  0
 32 51  1  0  0  0  0
 33 34  2  0  0  0  0
 35 54  1  0  0  0  0
M  END
> <PUBCHEM_COMPOUND_CID>
927

> <PUBCHEM_COMPOUND_CANONICALIZED>
1

> <PUBCHEM_CACTVS_COMPLEXITY>
845

> <PUBCHEM_CACTVS_HBOND_ACCEPTOR>
17

> <PUBCHEM_CACTVS_HBOND_DONOR>
7

> <PUBCHEM_CACTVS_ROTATABLE_BOND>
9

> <PUBCHEM_CACTVS_SUBSKEYS>
AAADceBzvAMAAAAAAAAAAAAAAAAAAWJEgAAsAAAAAAAAAFgB+AAAHgAQCCAACBzhlwYF8L9MFxCgQQZhZICAgC0REKABUCAoVBCDWAJAyEAeRAgPAALTACDwMAIAAAAAAAAAAAAAAAAAAAAAAAAAAAAAAA==

> <PUBCHEM_IUPAC_OPENEYE_NAME>
[[5-(6-aminopurin-9-yl)-3,4-dihydroxy-tetrahydrofuran-2-yl]methoxy-hydroxy-phosphoryl] (3,4-dihydroxytetrahydrofuran-2-yl)methyl hydrogen phosphate

> <PUBCHEM_IUPAC_CAS_NAME>
[[5-(6-aminopurin-9-yl)-3,4-dihydroxy-2-oxolanyl]methoxy-hydroxyphosphoryl] (3,4-dihydroxy-2-oxolanyl)methyl hydrogen phosphate

> <PUBCHEM_IUPAC_NAME_MARKUP>
[[5-(6-aminopurin-9-yl)-3,4-dihydroxyoxolan-2-yl]methoxy-hydroxyphosphoryl] (3,4-dihydroxyoxolan-2-yl)methyl hydrogen phosphate

> <PUBCHEM_IUPAC_NAME>
[[5-(6-aminopurin-9-yl)-3,4-dihydroxyoxolan-2-yl]methoxy-hydroxyphosphoryl] (3,4-dihydroxyoxolan-2-yl)methyl hydrogen phosphate

> <PUBCHEM_IUPAC_SYSTEMATIC_NAME>
[[5-(6-aminopurin-9-yl)-3,4-bis(oxidanyl)oxolan-2-yl]methoxy-oxidanyl-phosphoryl] [3,4-bis(oxidanyl)oxolan-2-yl]methyl hydrogen phosphate

> <PUBCHEM_IUPAC_TRADITIONAL_NAME>
[(5-adenin-9-yl-3,4-dihydroxy-tetrahydrofuran-2-yl)methoxy-hydroxy-phosphoryl] (3,4-dihydroxytetrahydrofuran-2-yl)methyl hydrogen phosphate

> <PUBCHEM_IUPAC_INCHI>
InChI=1S/C15H23N5O13P2/c16-13-9-14(18-4-17-13)20(5-19-9)15-12(24)11(23)8(32-15)3-31-35(27,28)33-34(25,26)30-2-7-10(22)6(21)1-29-7/h4-8,10-12,15,21-24H,1-3H2,(H,25,26)(H,27,28)(H2,16,17,18)

> <PUBCHEM_IUPAC_INCHIKEY>
PVLZDTFICNXVOP-UHFFFAOYSA-N

> <PUBCHEM_XLOGP3>
-5.6

> <PUBCHEM_EXACT_MASS>
543.07675980

> <PUBCHEM_MOLECULAR_FORMULA>
C15H23N5O13P2

> <PUBCHEM_MOLECULAR_WEIGHT>
543.32

> <PUBCHEM_SMILES>
C1C(C(C(O1)COP(=O)(O)OP(=O)(O)OCC2C(C(C(O2)N3C=NC4=C(N=CN=C43)N)O)O)O)O

> <PUBCHEM_CONNECTIVITY_SMILES>
C1C(C(C(O1)COP(=O)(O)OP(=O)(O)OCC2C(C(C(O2)N3C=NC4=C(N=CN=C43)N)O)O)O)O

> <PUBCHEM_CACTVS_TPSA>
271

> <PUBCHEM_MONOISOTOPIC_WEIGHT>
543.07675980

> <PUBCHEM_TOTAL_CHARGE>
0

> <PUBCHEM_HEAVY_ATOM_COUNT>
35

> <PUBCHEM_ATOM_DEF_STEREO_COUNT>
0

> <PUBCHEM_ATOM_UDEF_STEREO_COUNT>
7

> <PUBCHEM_BOND_DEF_STEREO_COUNT>
0

> <PUBCHEM_BOND_UDEF_STEREO_COUNT>
0

> <PUBCHEM_ISOTOPIC_ATOM_COUNT>
0

> <PUBCHEM_COMPONENT_COUNT>
1

> <PUBCHEM_CACTVS_TAUTO_COUNT>
-1

> <PUBCHEM_COORDINATE_TYPE>
1
5
255

> <PUBCHEM_BONDANNOTATIONS>
23  16  3
16  30  8
16  31  8
17  31  8
17  33  8
18  30  8
18  35  8
19  34  8
19  35  8
24  25  3
27  32  3
30  33  8
33  34  8
21  4  3
22  5  3
26  8  3
28  9  3

$$$$
