686
  -OEChem-08152603052D

 61 63  0     1  0  0  0  0  0999 V2000
    6.0010   -0.7301    0.0000 P   0  0  3  0  0  0  0  0  0  0  0  0
    6.8671    0.7699    0.0000 P   0  0  3  0  0  0  0  0  0  0  0  0
    9.5127    2.3632    0.0000 O   0  0  0  0  0  0  0  0  0  0  0  0
    4.2690   -1.7300    0.0000 O   0  0  0  0  0  0  0  0  0  0  0  0
    7.9605    4.4336    0.0000 O   0  0  0  0  0  0  0  0  0  0  0  0
    6.0010   -1.7300    0.0000 O   0  0  0  0  0  0  0  0  0  0  0  0
    4.2690   -4.7300    0.0000 O   0  0  0  0  0  0  0  0  0  0  0  0
    2.5369   -3.7300    0.0000 O   0  0  0  0  0  0  0  0  0  0  0  0
    6.0010   -3.7300    0.0000 O   0  0  0  0  0  0  0  0  0  0  0  0
    7.7331    1.2700    0.0000 O   0  0  0  0  0  0  0  0  0  0  0  0
    6.0010    0.2699    0.0000 O   0  0  0  0  0  0  0  0  0  0  0  0
    7.0010   -0.7301    0.0000 O   0  0  0  0  0  0  0  0  0  0  0  0
   10.9953    1.2793    0.0000 O   0  0  0  0  0  0  0  0  0  0  0  0
    6.3671    1.6360    0.0000 O   0  0  0  0  0  0  0  0  0  0  0  0
    5.0010   -0.7301    0.0000 O   0  0  0  0  0  0  0  0  0  0  0  0
    7.3671   -0.0961    0.0000 O   0  0  0  0  0  0  0  0  0  0  0  0
   14.1599    2.6882    0.0000 O   0  0  0  0  0  0  0  0  0  0  0  0
   11.1763    3.0018    0.0000 N   0  0  0  0  0  0  0  0  0  0  0  0
   12.5776    1.9838    0.0000 N   0  0  0  0  0  0  0  0  0  0  0  0
    8.7036    3.7645    0.0000 C   0  0  3  0  0  0  0  0  0  0  0  0
    8.5991    2.7700    0.0000 C   0  0  3  0  0  0  0  0  0  0  0  0
    9.6818    3.9724    0.0000 C   0  0  0  0  0  0  0  0  0  0  0  0
   10.1818    3.1064    0.0000 C   0  0  3  0  0  0  0  0  0  0  0  0
    4.2690   -3.7300    0.0000 C   0  0  3  0  0  0  0  0  0  0  0  0
    3.4030   -3.2300    0.0000 C   0  0  3  0  0  0  0  0  0  0  0  0
    5.1350   -3.2300    0.0000 C   0  0  3  0  0  0  0  0  0  0  0  0
    3.4030   -2.2300    0.0000 C   0  0  3  0  0  0  0  0  0  0  0  0
    5.1350   -2.2300    0.0000 C   0  0  3  0  0  0  0  0  0  0  0  0
    7.7331    2.2700    0.0000 C   0  0  0  0  0  0  0  0  0  0  0  0
    2.5369   -1.7300    0.0000 C   0  0  0  0  0  0  0  0  0  0  0  0
   11.7641    3.8108    0.0000 C   0  0  0  0  0  0  0  0  0  0  0  0
   11.5830    2.0883    0.0000 C   0  0  0  0  0  0  0  0  0  0  0  0
   12.7586    3.7063    0.0000 C   0  0  0  0  0  0  0  0  0  0  0  0
   13.1654    2.7928    0.0000 C   0  0  0  0  0  0  0  0  0  0  0  0
   13.3464    4.5153    0.0000 C   0  0  0  0  0  0  0  0  0  0  0  0
    8.1248    3.5423    0.0000 H   0  0  0  0  0  0  0  0  0  0  0  0
    8.6316    2.1508    0.0000 H   0  0  0  0  0  0  0  0  0  0  0  0
   10.2482    4.2246    0.0000 H   0  0  0  0  0  0  0  0  0  0  0  0
    9.4902    4.5620    0.0000 H   0  0  0  0  0  0  0  0  0  0  0  0
   10.5195    3.6263    0.0000 H   0  0  0  0  0  0  0  0  0  0  0  0
    3.7320   -4.0400    0.0000 H   0  0  0  0  0  0  0  0  0  0  0  0
    3.4030   -3.8500    0.0000 H   0  0  0  0  0  0  0  0  0  0  0  0
    5.1350   -3.8500    0.0000 H   0  0  0  0  0  0  0  0  0  0  0  0
    3.4030   -1.6100    0.0000 H   0  0  0  0  0  0  0  0  0  0  0  0
    5.1350   -1.6100    0.0000 H   0  0  0  0  0  0  0  0  0  0  0  0
    7.5210    2.8526    0.0000 H   0  0  0  0  0  0  0  0  0  0  0  0
    7.1225    2.1623    0.0000 H   0  0  0  0  0  0  0  0  0  0  0  0
    2.8469   -1.1931    0.0000 H   0  0  0  0  0  0  0  0  0  0  0  0
    2.0000   -1.4200    0.0000 H   0  0  0  0  0  0  0  0  0  0  0  0
    2.2269   -2.2670    0.0000 H   0  0  0  0  0  0  0  0  0  0  0  0
    8.0894    5.0400    0.0000 H   0  0  0  0  0  0  0  0  0  0  0  0
   11.5119    4.3772    0.0000 H   0  0  0  0  0  0  0  0  0  0  0  0
    3.7320   -5.0400    0.0000 H   0  0  0  0  0  0  0  0  0  0  0  0
    2.0000   -3.4200    0.0000 H   0  0  0  0  0  0  0  0  0  0  0  0
    6.0010   -4.3501    0.0000 H   0  0  0  0  0  0  0  0  0  0  0  0
   12.8297    1.4174    0.0000 H   0  0  0  0  0  0  0  0  0  0  0  0
   13.8480    4.1509    0.0000 H   0  0  0  0  0  0  0  0  0  0  0  0
   13.7108    5.0169    0.0000 H   0  0  0  0  0  0  0  0  0  0  0  0
   12.8448    4.8798    0.0000 H   0  0  0  0  0  0  0  0  0  0  0  0
    7.3110   -1.2670    0.0000 H   0  0  0  0  0  0  0  0  0  0  0  0
    5.7471    1.6360    0.0000 H   0  0  0  0  0  0  0  0  0  0  0  0
  1  6  1  0  0  0  0
  1 11  1  0  0  0  0
  1 12  1  0  0  0  0
  1 15  2  0  0  0  0
  2 10  1  0  0  0  0
  2 11  1  0  0  0  0
  2 14  1  0  0  0  0
  2 16  2  0  0  0  0
  3 21  1  0  0  0  0
  3 23  1  0  0  0  0
  4 27  1  0  0  0  0
  4 28  1  0  0  0  0
  5 20  1  0  0  0  0
  5 51  1  0  0  0  0
  6 28  1  0  0  0  0
  7 24  1  0  0  0  0
  7 53  1  0  0  0  0
  8 25  1  0  0  0  0
  8 54  1  0  0  0  0
  9 26  1  0  0  0  0
  9 55  1  0  0  0  0
 10 29  1  0  0  0  0
 12 60  1  0  0  0  0
 13 32  2  0  0  0  0
 14 61  1  0  0  0  0
 17 34  2  0  0  0  0
 18 23  1  0  0  0  0
 18 31  1  0  0  0  0
 18 32  1  0  0  0  0
 19 32  1  0  0  0  0
 19 34  1  0  0  0  0
 19 56  1  0  0  0  0
 20 21  1  0  0  0  0
 20 22  1  0  0  0  0
 20 36  1  0  0  0  0
 21 29  1  0  0  0  0
 21 37  1  0  0  0  0
 22 23  1  0  0  0  0
 22 38  1  0  0  0  0
 22 39  1  0  0  0  0
 23 40  1  0  0  0  0
 24 25  1  0  0  0  0
 24 26  1  0  0  0  0
 24 41  1  0  0  0  0
 25 27  1  0  0  0  0
 25 42  1  0  0  0  0
 26 28  1  0  0  0  0
 26 43  1  0  0  0  0
 27 30  1  0  0  0  0
 27 44  1  0  0  0  0
 28 45  1  0  0  0  0
 29 46  1  0  0  0  0
 29 47  1  0  0  0  0
 30 48  1  0  0  0  0
 30 49  1  0  0  0  0
 30 50  1  0  0  0  0
 31 33  2  0  0  0  0
 31 52  1  0  0  0  0
 33 34  1  0  0  0  0
 33 35  1  0  0  0  0
 35 57  1  0  0  0  0
 35 58  1  0  0  0  0
 35 59  1  0  0  0  0
M  END
> <PUBCHEM_COMPOUND_CID>
686

> <PUBCHEM_COMPOUND_CANONICALIZED>
1

> <PUBCHEM_CACTVS_COMPLEXITY>
961

> <PUBCHEM_CACTVS_HBOND_ACCEPTOR>
15

> <PUBCHEM_CACTVS_HBOND_DONOR>
7

> <PUBCHEM_CACTVS_ROTATABLE_BOND>
8

> <PUBCHEM_CACTVS_SUBSKEYS>
AAADceB7PAMAAAAAAAAAAAAAAAAAASAAAAAkQAAAAAAAAAAAAAAAHgAQCCAADBTxgAcDCAPABxCIQgFWUICAAAAAAAAAAAEIAECREAIAgQAOQAAPByIHAMHwcAYAAAAAAAAAAAAAAAAAAAAAAAAAAAAAAA==

> <PUBCHEM_IUPAC_OPENEYE_NAME>
[hydroxy-[[3-hydroxy-5-(5-methyl-2,4-dioxo-pyrimidin-1-yl)tetrahydrofuran-2-yl]methoxy]phosphoryl] (3,4,5-trihydroxy-6-methyl-tetrahydropyran-2-yl) hydrogen phosphate

> <PUBCHEM_IUPAC_CAS_NAME>
[hydroxy-[[3-hydroxy-5-(5-methyl-2,4-dioxo-1-pyrimidinyl)-2-oxolanyl]methoxy]phosphoryl] (3,4,5-trihydroxy-6-methyl-2-oxanyl) hydrogen phosphate

> <PUBCHEM_IUPAC_NAME_MARKUP>
[hydroxy-[[3-hydroxy-5-(5-methyl-2,4-dioxopyrimidin-1-yl)oxolan-2-yl]methoxy]phosphoryl] (3,4,5-trihydroxy-6-methyloxan-2-yl) hydrogen phosphate

> <PUBCHEM_IUPAC_NAME>
[hydroxy-[[3-hydroxy-5-(5-methyl-2,4-dioxopyrimidin-1-yl)oxolan-2-yl]methoxy]phosphoryl] (3,4,5-trihydroxy-6-methyloxan-2-yl) hydrogen phosphate

> <PUBCHEM_IUPAC_SYSTEMATIC_NAME>
[[5-[5-methyl-2,4-bis(oxidanylidene)pyrimidin-1-yl]-3-oxidanyl-oxolan-2-yl]methoxy-oxidanyl-phosphoryl] [6-methyl-3,4,5-tris(oxidanyl)oxan-2-yl] hydrogen phosphate

> <PUBCHEM_IUPAC_TRADITIONAL_NAME>
[[5-(2,4-diketo-5-methyl-pyrimidin-1-yl)-3-hydroxy-tetrahydrofuran-2-yl]methoxy-hydroxy-phosphoryl] (3,4,5-trihydroxy-6-methyl-tetrahydropyran-2-yl) hydrogen phosphate

> <PUBCHEM_IUPAC_INCHI>
InChI=1S/C16H26N2O15P2/c1-6-4-18(16(24)17-14(6)23)10-3-8(19)9(31-10)5-29-34(25,26)33-35(27,28)32-15-13(22)12(21)11(20)7(2)30-15/h4,7-13,15,19-22H,3,5H2,1-2H3,(H,25,26)(H,27,28)(H,17,23,24)

> <PUBCHEM_IUPAC_INCHIKEY>
ZOSQFDVXNQFKBY-UHFFFAOYSA-N

> <PUBCHEM_XLOGP3_AA>
-4.8

> <PUBCHEM_EXACT_MASS>
548.08084212

> <PUBCHEM_MOLECULAR_FORMULA>
C16H26N2O15P2

> <PUBCHEM_MOLECULAR_WEIGHT>
548.33

> <PUBCHEM_SMILES>
CC1C(C(C(C(O1)OP(=O)(O)OP(=O)(O)OCC2C(CC(O2)N3C=C(C(=O)NC3=O)C)O)O)O)O

> <PUBCHEM_CONNECTIVITY_SMILES>
CC1C(C(C(C(O1)OP(=O)(O)OP(=O)(O)OCC2C(CC(O2)N3C=C(C(=O)NC3=O)C)O)O)O)O

> <PUBCHEM_CACTVS_TPSA>
251

> <PUBCHEM_MONOISOTOPIC_WEIGHT>
548.08084212

> <PUBCHEM_TOTAL_CHARGE>
0

> <PUBCHEM_HEAVY_ATOM_COUNT>
35

> <PUBCHEM_ATOM_DEF_STEREO_COUNT>
0

> <PUBCHEM_ATOM_UDEF_STEREO_COUNT>
8

> <PUBCHEM_BOND_DEF_STEREO_COUNT>
0

> <PUBCHEM_BOND_UDEF_STEREO_COUNT>
0

> <PUBCHEM_ISOTOPIC_ATOM_COUNT>
0

> <PUBCHEM_COMPONENT_COUNT>
1

> <PUBCHEM_CACTVS_TAUTO_COUNT>
-1

> <PUBCHEM_COORDINATE_TYPE>
1
5
255

> <PUBCHEM_BONDANNOTATIONS>
23  18  3
18  31  8
18  32  8
19  32  8
19  34  8
21  29  3
27  30  3
31  33  8
33  34  8
20  5  3
28  6  3
24  7  3
25  8  3
26  9  3

$$$$
