349
  -OEChem-08152602403D

 22 22  0     1  0  0  0  0  0999 V2000
   -0.7468    1.1644    0.5001 O   0  0  0  0  0  0  0  0  0  0  0  0
   -0.6606   -2.4070   -0.3501 O   0  0  0  0  0  0  0  0  0  0  0  0
    2.8915    0.7871    0.2696 O   0  0  0  0  0  0  0  0  0  0  0  0
    0.7666    1.7384   -1.2406 O   0  0  0  0  0  0  0  0  0  0  0  0
    1.9340   -1.6636   -0.4364 O   0  0  0  0  0  0  0  0  0  0  0  0
   -3.3818    0.8519   -0.1773 O   0  0  0  0  0  0  0  0  0  0  0  0
   -1.1753   -0.0612   -0.1095 C   0  0  1  0  0  0  0  0  0  0  0  0
   -0.3090   -1.2344    0.3548 C   0  0  2  0  0  0  0  0  0  0  0  0
    1.5744    0.4598    0.6538 C   0  0  1  0  0  0  0  0  0  0  0  0
    0.5965    1.5234    0.1594 C   0  0  2  0  0  0  0  0  0  0  0  0
    1.1495   -0.8908    0.1075 C   0  0  0  0  0  0  0  0  0  0  0  0
   -2.6391   -0.2680    0.2687 C   0  0  0  0  0  0  0  0  0  0  0  0
   -1.1247    0.0594   -1.1999 H   0  0  0  0  0  0  0  0  0  0  0  0
   -0.4225   -1.4183    1.4289 H   0  0  0  0  0  0  0  0  0  0  0  0
    1.5387    0.3839    1.7463 H   0  0  0  0  0  0  0  0  0  0  0  0
    0.8264    2.4717    0.6583 H   0  0  0  0  0  0  0  0  0  0  0  0
   -2.7552   -0.3335    1.3557 H   0  0  0  0  0  0  0  0  0  0  0  0
   -3.0494   -1.1705   -0.1942 H   0  0  0  0  0  0  0  0  0  0  0  0
   -0.6054   -2.2167   -1.3021 H   0  0  0  0  0  0  0  0  0  0  0  0
    2.8971    0.9247   -0.6932 H   0  0  0  0  0  0  0  0  0  0  0  0
    0.4803    2.6486   -1.4272 H   0  0  0  0  0  0  0  0  0  0  0  0
   -4.3083    0.7014    0.0765 H   0  0  0  0  0  0  0  0  0  0  0  0
  1  7  1  0  0  0  0
  1 10  1  0  0  0  0
  2  8  1  0  0  0  0
  2 19  1  0  0  0  0
  3  9  1  0  0  0  0
  3 20  1  0  0  0  0
  4 10  1  0  0  0  0
  4 21  1  0  0  0  0
  5 11  2  0  0  0  0
  6 12  1  0  0  0  0
  6 22  1  0  0  0  0
  7  8  1  0  0  0  0
  7 12  1  0  0  0  0
  7 13  1  0  0  0  0
  8 11  1  0  0  0  0
  8 14  1  0  0  0  0
  9 10  1  0  0  0  0
  9 11  1  0  0  0  0
  9 15  1  0  0  0  0
 10 16  1  0  0  0  0
 12 17  1  0  0  0  0
 12 18  1  0  0  0  0
M  END
> <PUBCHEM_COMPOUND_CID>
349

> <PUBCHEM_CONFORMER_RMSD>
0.6

> <PUBCHEM_CONFORMER_DIVERSEORDER>
16
10
35
15
2
29
34
36
23
13
7
19
30
28
4
24
5
12
6
37
11
9
27
33
25
26
31
17
32
18
1
3
21
14
22
8
20

> <PUBCHEM_MMFF94_PARTIAL_CHARGES>
16
1 -0.56
10 0.56
11 0.45
12 0.28
19 0.4
2 -0.68
20 0.4
21 0.4
22 0.4
3 -0.68
4 -0.68
5 -0.57
6 -0.68
7 0.28
8 0.34
9 0.34

> <PUBCHEM_EFFECTIVE_ROTOR_COUNT>
2

> <PUBCHEM_PHARMACOPHORE_FEATURES>
11
1 1 acceptor
1 2 acceptor
1 2 donor
1 3 acceptor
1 3 donor
1 4 acceptor
1 4 donor
1 5 acceptor
1 6 acceptor
1 6 donor
6 1 7 8 9 10 11 rings

> <PUBCHEM_HEAVY_ATOM_COUNT>
12

> <PUBCHEM_ATOM_DEF_STEREO_COUNT>
0

> <PUBCHEM_ATOM_UDEF_STEREO_COUNT>
4

> <PUBCHEM_BOND_DEF_STEREO_COUNT>
0

> <PUBCHEM_BOND_UDEF_STEREO_COUNT>
0

> <PUBCHEM_ISOTOPIC_ATOM_COUNT>
0

> <PUBCHEM_COMPONENT_COUNT>
1

> <PUBCHEM_CACTVS_TAUTO_COUNT>
7

> <PUBCHEM_CONFORMER_ID>
0000015D00000010

> <PUBCHEM_MMFF94_ENERGY>
12.7772

> <PUBCHEM_FEATURE_SELFOVERLAP>
55.887

> <PUBCHEM_SHAPE_FINGERPRINT>
10219947 1 18335417946040601041
12423570 1 12901536953699649760
12524768 44 18411699863694584458
161256 15 18266457594695774980
16945 1 18342452677269634856
193761 8 17691120856666262929
21040471 1 18340205322725884953
23235685 24 18411411847466721352
23402655 69 18269257003610275757
23552423 10 18335423495217533627
23559900 14 18057616541770929412
241688 4 18049166566264743768
2748010 2 18265893562215539716
5084963 1 17916582012390239491
528886 8 18411974771613201403
63268167 104 18343302539733754785
66348 1 18194403290502763955

> <PUBCHEM_SHAPE_MULTIPOLES>
211.74
3.54
2.03
0.78
1.68
0.63
-0.08
-0.71
0.12
-0.3
-0.37
-0.14
-0.17
0.05

> <PUBCHEM_SHAPE_SELFOVERLAP>
427.617

> <PUBCHEM_SHAPE_VOLUME>
121.6

> <PUBCHEM_COORDINATE_TYPE>
2
5
10

$$$$
