274
  -OEChem-08152602343D

 34 37  0     1  0  0  0  0  0999 V2000
   -3.4103   -1.3293    0.4820 P   0  0  2  0  0  0  0  0  0  0  0  0
   -1.1852    0.9072   -1.4185 O   0  0  0  0  0  0  0  0  0  0  0  0
   -2.2662   -0.3345    1.0348 O   0  0  0  0  0  0  0  0  0  0  0  0
   -3.4382   -1.0015   -1.1013 O   0  0  0  0  0  0  0  0  0  0  0  0
   -0.9518    3.0056    1.0287 O   0  0  0  0  0  0  0  0  0  0  0  0
   -4.7926   -0.7036    1.0442 O   0  0  0  0  0  0  0  0  0  0  0  0
   -3.2023   -2.7783    0.8123 O   0  0  0  0  0  0  0  0  0  0  0  0
    0.8370    0.2430   -0.3591 N   0  0  0  0  0  0  0  0  0  0  0  0
    1.7267   -1.8012   -0.3378 N   0  0  0  0  0  0  0  0  0  0  0  0
    2.8300    1.5689    0.0543 N   0  0  0  0  0  0  0  0  0  0  0  0
    4.8031    0.1527    0.2935 N   0  0  0  0  0  0  0  0  0  0  0  0
    4.7006   -2.2323    0.1262 N   0  0  0  0  0  0  0  0  0  0  0  0
   -2.2851    1.0355    0.6530 C   0  0  2  0  0  0  0  0  0  0  0  0
   -2.4700    1.2167   -0.8498 C   0  0  2  0  0  0  0  0  0  0  0  0
   -0.8892    1.5919    0.8620 C   0  0  1  0  0  0  0  0  0  0  0  0
   -0.1784    1.2934   -0.4627 C   0  0  2  0  0  0  0  0  0  0  0  0
   -3.5445    0.3585   -1.4995 C   0  0  0  0  0  0  0  0  0  0  0  0
    2.1722    0.4138   -0.1268 C   0  0  0  0  0  0  0  0  0  0  0  0
    0.6185   -1.1041   -0.4780 C   0  0  0  0  0  0  0  0  0  0  0  0
    2.7057   -0.8650   -0.1179 C   0  0  0  0  0  0  0  0  0  0  0  0
    4.0751   -0.9738    0.1023 C   0  0  0  0  0  0  0  0  0  0  0  0
    4.1450    1.3366    0.2581 C   0  0  0  0  0  0  0  0  0  0  0  0
   -3.0564    1.5575    1.2273 H   0  0  0  0  0  0  0  0  0  0  0  0
   -2.6671    2.2705   -1.0844 H   0  0  0  0  0  0  0  0  0  0  0  0
   -0.3696    1.1707    1.7291 H   0  0  0  0  0  0  0  0  0  0  0  0
    0.3269    2.1788   -0.8665 H   0  0  0  0  0  0  0  0  0  0  0  0
   -4.5440    0.7220   -1.2427 H   0  0  0  0  0  0  0  0  0  0  0  0
   -3.4437    0.3839   -2.5892 H   0  0  0  0  0  0  0  0  0  0  0  0
   -1.4508    3.1798    1.8450 H   0  0  0  0  0  0  0  0  0  0  0  0
   -0.3594   -1.5246   -0.6675 H   0  0  0  0  0  0  0  0  0  0  0  0
   -5.0014    0.2418    0.8910 H   0  0  0  0  0  0  0  0  0  0  0  0
    4.7587    2.2172    0.4149 H   0  0  0  0  0  0  0  0  0  0  0  0
    4.1598   -3.0744   -0.0173 H   0  0  0  0  0  0  0  0  0  0  0  0
    5.6973   -2.2852    0.2870 H   0  0  0  0  0  0  0  0  0  0  0  0
  1  3  1  0  0  0  0
  1  4  1  0  0  0  0
  1  6  1  0  0  0  0
  1  7  2  0  0  0  0
  2 14  1  0  0  0  0
  2 16  1  0  0  0  0
  3 13  1  0  0  0  0
  4 17  1  0  0  0  0
  5 15  1  0  0  0  0
  5 29  1  0  0  0  0
  6 31  1  0  0  0  0
  8 16  1  0  0  0  0
  8 18  1  0  0  0  0
  8 19  1  0  0  0  0
  9 19  2  0  0  0  0
  9 20  1  0  0  0  0
 10 18  2  0  0  0  0
 10 22  1  0  0  0  0
 11 21  1  0  0  0  0
 11 22  2  0  0  0  0
 12 21  1  0  0  0  0
 12 33  1  0  0  0  0
 12 34  1  0  0  0  0
 13 14  1  0  0  0  0
 13 15  1  0  0  0  0
 13 23  1  0  0  0  0
 14 17  1  0  0  0  0
 14 24  1  0  0  0  0
 15 16  1  0  0  0  0
 15 25  1  0  0  0  0
 16 26  1  0  0  0  0
 17 27  1  0  0  0  0
 17 28  1  0  0  0  0
 18 20  1  0  0  0  0
 19 30  1  0  0  0  0
 20 21  2  0  0  0  0
 22 32  1  0  0  0  0
M  END
> <PUBCHEM_COMPOUND_CID>
274

> <PUBCHEM_CONFORMER_RMSD>
0.6

> <PUBCHEM_CONFORMER_DIVERSEORDER>
42
97
34
72
24
65
83
77
56
88
104
44
58
46
75
57
85
92
81
50
100
37
61
82
54
91
108
70
52
99
93
96
74
80
87
98
86
14
78
59
79
31
66
107
8
103
25
10
90
102
18
67
94
43
60
76
51
5
16
89
30
62
49
106
7
15
1
32
71
39
41
21
53
84
47
23
29
19
26
48
105
27
45
36
63
22
73
2
101
68
11
28
38
55
13
12
9
3
69
20
40
35
95
33
64
6
17
4

> <PUBCHEM_MMFF94_PARTIAL_CHARGES>
28
1 1.51
10 -0.57
11 -0.62
12 -0.9
13 0.28
14 0.28
15 0.28
16 0.54
17 0.28
18 0.11
19 0.04
2 -0.56
20 0.23
21 0.41
22 0.47
29 0.4
3 -0.55
30 0.15
31 0.5
32 0.15
33 0.4
34 0.4
4 -0.55
5 -0.68
6 -0.77
7 -0.7
8 0.05
9 -0.57

> <PUBCHEM_EFFECTIVE_ROTOR_COUNT>
2.2

> <PUBCHEM_PHARMACOPHORE_FEATURES>
14
1 12 cation
1 12 donor
1 2 acceptor
1 5 acceptor
1 5 donor
1 6 acceptor
1 7 acceptor
3 10 11 22 cation
3 8 10 18 cation
3 8 9 19 cation
5 2 13 14 15 16 rings
5 8 9 18 19 20 rings
6 1 3 4 13 14 17 rings
6 10 11 18 20 21 22 rings

> <PUBCHEM_HEAVY_ATOM_COUNT>
22

> <PUBCHEM_ATOM_DEF_STEREO_COUNT>
0

> <PUBCHEM_ATOM_UDEF_STEREO_COUNT>
4

> <PUBCHEM_BOND_DEF_STEREO_COUNT>
0

> <PUBCHEM_BOND_UDEF_STEREO_COUNT>
0

> <PUBCHEM_ISOTOPIC_ATOM_COUNT>
0

> <PUBCHEM_COMPONENT_COUNT>
1

> <PUBCHEM_CACTVS_TAUTO_COUNT>
3

> <PUBCHEM_CONFORMER_ID>
000001120000002A

> <PUBCHEM_MMFF94_ENERGY>
33.0275

> <PUBCHEM_FEATURE_SELFOVERLAP>
71.904

> <PUBCHEM_SHAPE_FINGERPRINT>
11552529 35 17845090855930498999
11615757 297 18060697295277064020
12592029 89 8141822559823402625
12596599 1 15554157172643494532
12633257 1 18198356060563672114
12788726 201 17984408651815688969
13224815 77 18409173211933338348
13544653 18 18410293648662872959
13693222 15 18411143532232719976
14004511 7 11458422427294605820
14223421 5 18200038326376298796
14341114 176 18411144610649319378
14787075 74 18191588768590346792
14790565 3 17328593233021134572
15196674 1 18410573980951559366
15375462 189 18130790113401755489
15420108 30 14674270338274097457
17492 89 18340206289278961234
17834072 14 18040430014236971069
19050596 39 18272091543874343520
19141452 34 18335427915382635043
200 152 18272077288809212589
20261772 1 18059294369790089438
20681677 274 18411134732250945096
21682296 61 17772754875662050054
221490 88 18409167701796453982
23559900 14 18334849498866540496
26918003 58 18409444778193825545
2871803 45 18187078459997511907
312423 11 18341624676732390060
4921388 177 17240485810343711723
5104073 3 18341608166920147064
5283173 99 18262224513921822741
9709674 26 18270120089350271942

> <PUBCHEM_SHAPE_MULTIPOLES>
396.48
9.16
2.43
1.11
4.52
0.15
0.14
3.59
-0.81
-0.24
-0.61
-1.24
-0.16
0.57

> <PUBCHEM_SHAPE_SELFOVERLAP>
860.966

> <PUBCHEM_SHAPE_VOLUME>
217.9

> <PUBCHEM_COORDINATE_TYPE>
2
5
10

$$$$
