129693398
  -OEChem-08152605042D

 10  6  0     0  0  0  0  0  0999 V2000
    4.0000   -0.1340    0.0000 Ac  0  0  0  0  0  0  0  0  0  0  0  0
    4.0000    0.8660    0.0000 S   0  5  0  0  0  0  0  0  0  0  0  0
    3.0000   -0.1340    0.0000 S   0  5  0  0  0  0  0  0  0  0  0  0
    5.0000   -0.1340    0.0000 S   0  5  0  0  0  0  0  0  0  0  0  0
    5.7320    1.8660    0.0000 N   0  0  0  0  0  0  0  0  0  0  0  0
    2.0000   -1.8660    0.0000 N   0  0  0  0  0  0  0  0  0  0  0  0
    6.0000   -1.8660    0.0000 N   0  0  0  0  0  0  0  0  0  0  0  0
    4.8660    1.3660    0.0000 C   0  0  0  0  0  0  0  0  0  0  0  0
    2.5000   -1.0000    0.0000 C   0  0  0  0  0  0  0  0  0  0  0  0
    5.5000   -1.0000    0.0000 C   0  0  0  0  0  0  0  0  0  0  0  0
  2  8  1  0  0  0  0
  3  9  1  0  0  0  0
  4 10  1  0  0  0  0
  5  8  3  0  0  0  0
  6  9  3  0  0  0  0
  7 10  3  0  0  0  0
M  CHG  3   2  -1   3  -1   4  -1
M  END
> <PUBCHEM_COMPOUND_CID>
129693398

> <PUBCHEM_COMPOUND_CANONICALIZED>
1

> <PUBCHEM_CACTVS_COMPLEXITY>
132

> <PUBCHEM_CACTVS_HBOND_ACCEPTOR>
6

> <PUBCHEM_CACTVS_HBOND_DONOR>
0

> <PUBCHEM_CACTVS_ROTATABLE_BOND>
0

> <PUBCHEM_CACTVS_SUBSKEYS>
AAADcQBDAABgAAAAAAAAAAAAAAAAAAAAAAAAAAAAAAAAAAAAAAAABAQAAAAAAAAAAAAAAAAAAAAQAAAAAAAAAAAAAAAAAAAAAAAAAAAAAAAAAAAAAAAAAAAAAAAAAAAAAAAAAAAAAAAAAAAAAAAAAAAAAA==

> <PUBCHEM_IUPAC_OPENEYE_NAME>
actinium trithiocyanate

> <PUBCHEM_IUPAC_CAS_NAME>
actinium trithiocyanate

> <PUBCHEM_IUPAC_NAME_MARKUP>
actinium trithiocyanate

> <PUBCHEM_IUPAC_NAME>
actinium trithiocyanate

> <PUBCHEM_IUPAC_SYSTEMATIC_NAME>
actinium trithiocyanate

> <PUBCHEM_IUPAC_TRADITIONAL_NAME>
actinium trithiocyanate

> <PUBCHEM_IUPAC_INCHI>
InChI=1S/3CHNS.Ac/c3*2-1-3;/h3*3H;/p-3

> <PUBCHEM_IUPAC_INCHIKEY>
DBSOMJRWLMBFJM-UHFFFAOYSA-K

> <PUBCHEM_EXACT_MASS>
400.95319

> <PUBCHEM_MOLECULAR_FORMULA>
C3AcN3S3-3

> <PUBCHEM_MOLECULAR_WEIGHT>
401.3

> <PUBCHEM_SMILES>
C(#N)[S-].C(#N)[S-].C(#N)[S-].[Ac]

> <PUBCHEM_CONNECTIVITY_SMILES>
C(#N)[S-].C(#N)[S-].C(#N)[S-].[Ac]

> <PUBCHEM_CACTVS_TPSA>
74.4

> <PUBCHEM_MONOISOTOPIC_WEIGHT>
400.95319

> <PUBCHEM_TOTAL_CHARGE>
-3

> <PUBCHEM_HEAVY_ATOM_COUNT>
10

> <PUBCHEM_ATOM_DEF_STEREO_COUNT>
0

> <PUBCHEM_ATOM_UDEF_STEREO_COUNT>
0

> <PUBCHEM_BOND_DEF_STEREO_COUNT>
0

> <PUBCHEM_BOND_UDEF_STEREO_COUNT>
0

> <PUBCHEM_ISOTOPIC_ATOM_COUNT>
0

> <PUBCHEM_COMPONENT_COUNT>
4

> <PUBCHEM_CACTVS_TAUTO_COUNT>
-1

> <PUBCHEM_NONSTANDARDBOND>
1  2  6
1  3  6
1  4  6

> <PUBCHEM_COORDINATE_TYPE>
1
5
255

$$$$
