16685054
  -OEChem-08152606082D

  7  6  0     0  0  0  0  0  0999 V2000
    5.4641    0.5000    0.0000 Al  0  0  0  0  0  0  0  0  0  0  0  0
    3.7321   -0.5000    0.0000 Al  0  0  0  0  0  0  0  0  0  0  0  0
    7.1962   -0.5000    0.0000 Al  0  0  0  0  0  0  0  0  0  0  0  0
    2.0000    0.5000    0.0000 Al  0  0  0  0  0  0  0  0  0  0  0  0
    4.5981    0.0000    0.0000 C   0  0  0  0  0  0  0  0  0  0  0  0
    6.3301    0.0000    0.0000 C   0  0  0  0  0  0  0  0  0  0  0  0
    2.8660   -0.0000    0.0000 C   0  0  0  0  0  0  0  0  0  0  0  0
  1  5  2  0  0  0  0
  1  6  1  0  0  0  0
  2  5  2  0  0  0  0
  2  7  1  0  0  0  0
  3  6  3  0  0  0  0
  4  7  3  0  0  0  0
M  END
> <PUBCHEM_COMPOUND_CID>
16685054

> <PUBCHEM_COMPOUND_CANONICALIZED>
1

> <PUBCHEM_CACTVS_COMPLEXITY>
164

> <PUBCHEM_CACTVS_HBOND_ACCEPTOR>
0

> <PUBCHEM_CACTVS_HBOND_DONOR>
0

> <PUBCHEM_CACTVS_ROTATABLE_BOND>
0

> <PUBCHEM_CACTVS_SUBSKEYS>
AAADcQBAAAAAABAAAAAAAAAAAAAAAAAAAAAAAAAAAAAAAAAAAAAAACAAAAAAAAAAAAAAAAAAAAAAAAAAAAAAAAAAAAAAAAAAAAAAAAAAAAAAAAAAAAAAAAAAAAAAAAAAAAAAAAAAAAAAAAAAAAAAAAAAAA==

> <PUBCHEM_IUPAC_OPENEYE_NAME>
alumanylidynemethyl(alumanylidynemethylalumanylidenemethylene)alumane

> <PUBCHEM_IUPAC_CAS_NAME>
alumanylidynemethyl(alumanylidynemethylalumanylidenemethylidene)alumane

> <PUBCHEM_IUPAC_NAME_MARKUP>
alumanylidynemethyl(alumanylidynemethylalumanylidenemethylidene)alumane

> <PUBCHEM_IUPAC_NAME>
alumanylidynemethyl(alumanylidynemethylalumanylidenemethylidene)alumane

> <PUBCHEM_IUPAC_SYSTEMATIC_NAME>
alumanylidynemethyl(alumanylidynemethylalumanylidenemethylidene)alumane

> <PUBCHEM_IUPAC_TRADITIONAL_NAME>
alumanylidynemethyl(alumanylidynemethylalumanylidenemethylene)alumane

> <PUBCHEM_IUPAC_INCHI>
InChI=1S/3C.4Al

> <PUBCHEM_IUPAC_INCHIKEY>
CAVCGVPGBKGDTG-UHFFFAOYSA-N

> <PUBCHEM_EXACT_MASS>
143.926154

> <PUBCHEM_MOLECULAR_FORMULA>
C3Al4

> <PUBCHEM_MOLECULAR_WEIGHT>
143.96

> <PUBCHEM_SMILES>
C(#[Al])[Al]=C=[Al]C#[Al]

> <PUBCHEM_CONNECTIVITY_SMILES>
C(#[Al])[Al]=C=[Al]C#[Al]

> <PUBCHEM_CACTVS_TPSA>
0

> <PUBCHEM_MONOISOTOPIC_WEIGHT>
143.926154

> <PUBCHEM_TOTAL_CHARGE>
0

> <PUBCHEM_HEAVY_ATOM_COUNT>
7

> <PUBCHEM_ATOM_DEF_STEREO_COUNT>
0

> <PUBCHEM_ATOM_UDEF_STEREO_COUNT>
0

> <PUBCHEM_BOND_DEF_STEREO_COUNT>
0

> <PUBCHEM_BOND_UDEF_STEREO_COUNT>
0

> <PUBCHEM_ISOTOPIC_ATOM_COUNT>
0

> <PUBCHEM_COMPONENT_COUNT>
1

> <PUBCHEM_CACTVS_TAUTO_COUNT>
-1

> <PUBCHEM_COORDINATE_TYPE>
1
5
255

$$$$
