159740
  -OEChem-08152607302D

 16 12  0     0  0  0  0  0  0999 V2000
    5.5981   -0.0670    0.0000 Cl  0  0  0  0  0  0  0  0  0  0  0  0
    3.0000    1.4330    0.0000 Cl  0  0  0  0  0  0  0  0  0  0  0  0
    3.0000   -1.5670    0.0000 Cl  0  0  0  0  0  0  0  0  0  0  0  0
    3.8660   -0.0670    0.0000 Al  0  1  0  0  0  0  0  0  0  0  0  0
    4.7321    0.4330    0.0000 O   0  5  0  0  0  0  0  0  0  0  0  0
    3.0000    0.4330    0.0000 O   0  5  0  0  0  0  0  0  0  0  0  0
    3.8660   -1.0670    0.0000 O   0  5  0  0  0  0  0  0  0  0  0  0
    6.4641   -0.5670    0.0000 O   0  0  0  0  0  0  0  0  0  0  0  0
    6.0981    0.7990    0.0000 O   0  0  0  0  0  0  0  0  0  0  0  0
    5.0981   -0.9330    0.0000 O   0  0  0  0  0  0  0  0  0  0  0  0
    3.0000    2.4330    0.0000 O   0  0  0  0  0  0  0  0  0  0  0  0
    2.0000    1.4330    0.0000 O   0  0  0  0  0  0  0  0  0  0  0  0
    4.0000    1.4330    0.0000 O   0  0  0  0  0  0  0  0  0  0  0  0
    3.5000   -2.4330    0.0000 O   0  0  0  0  0  0  0  0  0  0  0  0
    2.1340   -2.0670    0.0000 O   0  0  0  0  0  0  0  0  0  0  0  0
    2.5000   -0.7010    0.0000 O   0  0  0  0  0  0  0  0  0  0  0  0
  1  5  1  0  0  0  0
  1  8  2  0  0  0  0
  1  9  2  0  0  0  0
  1 10  2  0  0  0  0
  2  6  1  0  0  0  0
  2 11  2  0  0  0  0
  2 12  2  0  0  0  0
  2 13  2  0  0  0  0
  3  7  1  0  0  0  0
  3 14  2  0  0  0  0
  3 15  2  0  0  0  0
  3 16  2  0  0  0  0
M  CHG  4   4   3   5  -1   6  -1   7  -1
M  END
> <PUBCHEM_COMPOUND_CID>
159740

> <PUBCHEM_COMPOUND_CANONICALIZED>
1

> <PUBCHEM_CACTVS_COMPLEXITY>
95.8

> <PUBCHEM_CACTVS_HBOND_ACCEPTOR>
12

> <PUBCHEM_CACTVS_HBOND_DONOR>
0

> <PUBCHEM_CACTVS_ROTATABLE_BOND>
0

> <PUBCHEM_CACTVS_SUBSKEYS>
AAADcQAAPAAGABAAAAAAAAAAAAAAAAAAAAAAAAAAAAAAAAAAAAAAAAAAAAAAAAAAAAAAAAAAAAAAAAAAAAAAAAAAAAAAAAAAAAAAAAAAAAAAAAAAAAAAAAAAAAAAAAAAAAAAAAAAAAAAAAAAAAAAAAAAAA==

> <PUBCHEM_IUPAC_OPENEYE_NAME>
aluminum triperchlorate

> <PUBCHEM_IUPAC_CAS_NAME>
aluminum triperchlorate

> <PUBCHEM_IUPAC_NAME_MARKUP>
aluminum triperchlorate

> <PUBCHEM_IUPAC_NAME>
aluminum triperchlorate

> <PUBCHEM_IUPAC_SYSTEMATIC_NAME>
aluminum triperchlorate

> <PUBCHEM_IUPAC_TRADITIONAL_NAME>
aluminum triperchlorate

> <PUBCHEM_IUPAC_INCHI>
InChI=1S/Al.3ClHO4/c;3*2-1(3,4)5/h;3*(H,2,3,4,5)/q+3;;;/p-3

> <PUBCHEM_IUPAC_INCHIKEY>
ZRGUXTGDSGGHLR-UHFFFAOYSA-K

> <PUBCHEM_EXACT_MASS>
323.827072

> <PUBCHEM_MOLECULAR_FORMULA>
AlCl3O12

> <PUBCHEM_MOLECULAR_WEIGHT>
325.33

> <PUBCHEM_SMILES>
[O-]Cl(=O)(=O)=O.[O-]Cl(=O)(=O)=O.[O-]Cl(=O)(=O)=O.[Al+3]

> <PUBCHEM_CONNECTIVITY_SMILES>
[O-]Cl(=O)(=O)=O.[O-]Cl(=O)(=O)=O.[O-]Cl(=O)(=O)=O.[Al+3]

> <PUBCHEM_CACTVS_TPSA>
223

> <PUBCHEM_MONOISOTOPIC_WEIGHT>
323.827072

> <PUBCHEM_TOTAL_CHARGE>
0

> <PUBCHEM_HEAVY_ATOM_COUNT>
16

> <PUBCHEM_ATOM_DEF_STEREO_COUNT>
0

> <PUBCHEM_ATOM_UDEF_STEREO_COUNT>
0

> <PUBCHEM_BOND_DEF_STEREO_COUNT>
0

> <PUBCHEM_BOND_UDEF_STEREO_COUNT>
0

> <PUBCHEM_ISOTOPIC_ATOM_COUNT>
0

> <PUBCHEM_COMPONENT_COUNT>
4

> <PUBCHEM_CACTVS_TAUTO_COUNT>
-1

> <PUBCHEM_COORDINATE_TYPE>
1
5
255

$$$$
