161130
  -OEChem-08152606152D

 13  9  0     0  0  0  0  0  0999 V2000
    5.4641    0.2500    0.0000 Cl  0  0  0  0  0  0  0  0  0  0  0  0
    2.8660    1.7500    0.0000 Cl  0  0  0  0  0  0  0  0  0  0  0  0
    2.8660   -1.2500    0.0000 Cl  0  0  0  0  0  0  0  0  0  0  0  0
    3.7321    0.2500    0.0000 Al  0  1  0  0  0  0  0  0  0  0  0  0
    4.5981    0.7500    0.0000 O   0  5  0  0  0  0  0  0  0  0  0  0
    2.8660    0.7500    0.0000 O   0  5  0  0  0  0  0  0  0  0  0  0
    3.7321   -0.7500    0.0000 O   0  5  0  0  0  0  0  0  0  0  0  0
    6.3301    0.7500    0.0000 O   0  0  0  0  0  0  0  0  0  0  0  0
    5.4641   -0.7500    0.0000 O   0  0  0  0  0  0  0  0  0  0  0  0
    2.0000    2.2500    0.0000 O   0  0  0  0  0  0  0  0  0  0  0  0
    3.7321    2.2500    0.0000 O   0  0  0  0  0  0  0  0  0  0  0  0
    2.8660   -2.2500    0.0000 O   0  0  0  0  0  0  0  0  0  0  0  0
    2.0000   -0.7500    0.0000 O   0  0  0  0  0  0  0  0  0  0  0  0
  1  5  1  0  0  0  0
  1  8  2  0  0  0  0
  1  9  2  0  0  0  0
  2  6  1  0  0  0  0
  2 10  2  0  0  0  0
  2 11  2  0  0  0  0
  3  7  1  0  0  0  0
  3 12  2  0  0  0  0
  3 13  2  0  0  0  0
M  CHG  4   4   3   5  -1   6  -1   7  -1
M  END
> <PUBCHEM_COMPOUND_CID>
161130

> <PUBCHEM_COMPOUND_CANONICALIZED>
1

> <PUBCHEM_CACTVS_COMPLEXITY>
36.5

> <PUBCHEM_CACTVS_HBOND_ACCEPTOR>
9

> <PUBCHEM_CACTVS_HBOND_DONOR>
0

> <PUBCHEM_CACTVS_ROTATABLE_BOND>
0

> <PUBCHEM_CACTVS_SUBSKEYS>
AAADcQAAPAAGABAAAAAAAAAAAAAAAAAAAAAAAAAAAAAAAAAAAAAAAAAAAAAAAAAAAAAAAAAAAAAAAAAAAAAAAAAAAAAAAAAAAAAAAAAAAAAAAAAAAAAAAAAAAAAAAAAAAAAAAAAAAAAAAAAAAAAAAAAAAA==

> <PUBCHEM_IUPAC_OPENEYE_NAME>
aluminum trichlorate

> <PUBCHEM_IUPAC_CAS_NAME>
aluminum trichlorate

> <PUBCHEM_IUPAC_NAME_MARKUP>
aluminum trichlorate

> <PUBCHEM_IUPAC_NAME>
aluminum trichlorate

> <PUBCHEM_IUPAC_SYSTEMATIC_NAME>
aluminum trichlorate

> <PUBCHEM_IUPAC_TRADITIONAL_NAME>
aluminum trichlorate

> <PUBCHEM_IUPAC_INCHI>
InChI=1S/Al.3ClHO3/c;3*2-1(3)4/h;3*(H,2,3,4)/q+3;;;/p-3

> <PUBCHEM_IUPAC_INCHIKEY>
QFIGQGUHYKRFAI-UHFFFAOYSA-K

> <PUBCHEM_EXACT_MASS>
275.842328

> <PUBCHEM_MOLECULAR_FORMULA>
AlCl3O9

> <PUBCHEM_MOLECULAR_WEIGHT>
277.33

> <PUBCHEM_SMILES>
[O-]Cl(=O)=O.[O-]Cl(=O)=O.[O-]Cl(=O)=O.[Al+3]

> <PUBCHEM_CONNECTIVITY_SMILES>
[O-]Cl(=O)=O.[O-]Cl(=O)=O.[O-]Cl(=O)=O.[Al+3]

> <PUBCHEM_CACTVS_TPSA>
172

> <PUBCHEM_MONOISOTOPIC_WEIGHT>
275.842328

> <PUBCHEM_TOTAL_CHARGE>
0

> <PUBCHEM_HEAVY_ATOM_COUNT>
13

> <PUBCHEM_ATOM_DEF_STEREO_COUNT>
0

> <PUBCHEM_ATOM_UDEF_STEREO_COUNT>
0

> <PUBCHEM_BOND_DEF_STEREO_COUNT>
0

> <PUBCHEM_BOND_UDEF_STEREO_COUNT>
0

> <PUBCHEM_ISOTOPIC_ATOM_COUNT>
0

> <PUBCHEM_COMPONENT_COUNT>
4

> <PUBCHEM_CACTVS_TAUTO_COUNT>
-1

> <PUBCHEM_COORDINATE_TYPE>
1
5
255

$$$$
