44149031
  -OEChem-08152605102D

  7  0  0     0  0  0  0  0  0999 V2000
    1.7990    3.5000    0.0000 Ni  0  2  0  0  0  0  0  0  0  0  0  0
    0.8660    1.0000    0.0000 Al  0  1  0  0  0  0  0  0  0  0  0  0
    2.5981    1.0000    0.0000 Al  0  1  0  0  0  0  0  0  0  0  0  0
    1.7321    1.5000    0.0000 O   0  6  0  0  0  0  0  0  0  0  0  0
    0.0000    1.5000    0.0000 O   0  6  0  0  0  0  0  0  0  0  0  0
    0.8660    0.0000    0.0000 O   0  6  0  0  0  0  0  0  0  0  0  0
    0.7990    3.5000    0.0000 O   0  6  0  0  0  0  0  0  0  0  0  0
M  CHG  7   1   2   2   3   3   3   4  -2   5  -2   6  -2   7  -2
M  END
> <PUBCHEM_COMPOUND_CID>
44149031

> <PUBCHEM_COMPOUND_CANONICALIZED>
1

> <PUBCHEM_CACTVS_COMPLEXITY>
0

> <PUBCHEM_CACTVS_HBOND_ACCEPTOR>
4

> <PUBCHEM_CACTVS_HBOND_DONOR>
0

> <PUBCHEM_CACTVS_ROTATABLE_BOND>
0

> <PUBCHEM_CACTVS_SUBSKEYS>
AAADcQAAOAAAABAIAAAAAAAAAAAAAAAAAAAAAAAAAAAAAAAAAAAAAAAAAAAAAAAAAAAAAAAAAAAAAAAAAAAAAAAAAAAAAAAAAAAAAAAAAAAAAAAAAAAAAAAAAAAAAAAAAAAAAAAAAAAAAAAAAAAAAAAAAA==

> <PUBCHEM_IUPAC_OPENEYE_NAME>
dialuminum;nickelous;tetrakis(oxygen(2-))

> <PUBCHEM_IUPAC_CAS_NAME>
dialuminum;nickel(2+);tetrakis(oxygen(2-))

> <PUBCHEM_IUPAC_NAME_MARKUP>
dialuminum;nickel(2+);tetrakis(oxygen(2-))

> <PUBCHEM_IUPAC_NAME>
dialuminum;nickel(2+);tetrakis(oxygen(2-))

> <PUBCHEM_IUPAC_SYSTEMATIC_NAME>
dialuminum;nickel(2+);tetrakis(oxygen(2-))

> <PUBCHEM_IUPAC_TRADITIONAL_NAME>
dialuminum;nickelous;tetrakis(oxygen(2-))

> <PUBCHEM_IUPAC_INCHI>
InChI=1S/2Al.Ni.4O/q2*+3;+2;4*-2

> <PUBCHEM_IUPAC_INCHIKEY>
OADDCINVIUHXGF-UHFFFAOYSA-N

> <PUBCHEM_EXACT_MASS>
175.878077

> <PUBCHEM_MOLECULAR_FORMULA>
Al2NiO4

> <PUBCHEM_MOLECULAR_WEIGHT>
176.654

> <PUBCHEM_SMILES>
[O-2].[O-2].[O-2].[O-2].[Al+3].[Al+3].[Ni+2]

> <PUBCHEM_CONNECTIVITY_SMILES>
[O-2].[O-2].[O-2].[O-2].[Al+3].[Al+3].[Ni+2]

> <PUBCHEM_CACTVS_TPSA>
4

> <PUBCHEM_MONOISOTOPIC_WEIGHT>
175.878077

> <PUBCHEM_TOTAL_CHARGE>
0

> <PUBCHEM_HEAVY_ATOM_COUNT>
7

> <PUBCHEM_ATOM_DEF_STEREO_COUNT>
0

> <PUBCHEM_ATOM_UDEF_STEREO_COUNT>
0

> <PUBCHEM_BOND_DEF_STEREO_COUNT>
0

> <PUBCHEM_BOND_UDEF_STEREO_COUNT>
0

> <PUBCHEM_ISOTOPIC_ATOM_COUNT>
0

> <PUBCHEM_COMPONENT_COUNT>
7

> <PUBCHEM_CACTVS_TAUTO_COUNT>
-1

> <PUBCHEM_COORDINATE_TYPE>
1
5
255

$$$$
