16126812
  -OEChem-08152607052D

  2  0  0     0  0  0  0  0  0999 V2000
    2.0000    0.0000    0.0000 P   0  7  0  0  0  0  0  0  0  0  0  0
    3.0000    0.0000    0.0000 Al  0  1  0  0  0  0  0  0  0  0  0  0
M  CHG  2   1  -3   2   3
M  END
> <PUBCHEM_COMPOUND_CID>
16126812

> <PUBCHEM_COMPOUND_CANONICALIZED>
1

> <PUBCHEM_CACTVS_COMPLEXITY>
0

> <PUBCHEM_CACTVS_HBOND_ACCEPTOR>
1

> <PUBCHEM_CACTVS_HBOND_DONOR>
0

> <PUBCHEM_CACTVS_ROTATABLE_BOND>
0

> <PUBCHEM_CACTVS_SUBSKEYS>
AAADcQAAAAIAABAAAAAAAAAAAAAAAAAAAAAAAAAAAAAAAAAAAAAAAAAAAAAAAAAAAAAAAAAAAAAAAAAAAAAAAAAAAAAAAAAAAAAAAAAAAAAAAAAAAAAAAAAAAAAAAAAAAAAAAAAAAAAAAAAAAAAAAAAAAA==

> <PUBCHEM_IUPAC_OPENEYE_NAME>
aluminum phosphorus(3-)

> <PUBCHEM_IUPAC_CAS_NAME>
aluminum phosphorus(3-)

> <PUBCHEM_IUPAC_NAME_MARKUP>
aluminum phosphorus(3-)

> <PUBCHEM_IUPAC_NAME>
aluminum phosphorus(3-)

> <PUBCHEM_IUPAC_SYSTEMATIC_NAME>
aluminum phosphorus(3-)

> <PUBCHEM_IUPAC_TRADITIONAL_NAME>
aluminum phosphorus(3-)

> <PUBCHEM_IUPAC_INCHI>
InChI=1S/Al.P/q+3;-3

> <PUBCHEM_IUPAC_INCHIKEY>
PGCGUUGEUBFBPP-UHFFFAOYSA-N

> <PUBCHEM_EXACT_MASS>
57.9553004

> <PUBCHEM_MOLECULAR_FORMULA>
AlP

> <PUBCHEM_MOLECULAR_WEIGHT>
57.955300

> <PUBCHEM_SMILES>
[Al+3].[P-3]

> <PUBCHEM_CONNECTIVITY_SMILES>
[Al+3].[P-3]

> <PUBCHEM_CACTVS_TPSA>
0

> <PUBCHEM_MONOISOTOPIC_WEIGHT>
57.9553004

> <PUBCHEM_TOTAL_CHARGE>
0

> <PUBCHEM_HEAVY_ATOM_COUNT>
2

> <PUBCHEM_ATOM_DEF_STEREO_COUNT>
0

> <PUBCHEM_ATOM_UDEF_STEREO_COUNT>
0

> <PUBCHEM_BOND_DEF_STEREO_COUNT>
0

> <PUBCHEM_BOND_UDEF_STEREO_COUNT>
0

> <PUBCHEM_ISOTOPIC_ATOM_COUNT>
0

> <PUBCHEM_COMPONENT_COUNT>
2

> <PUBCHEM_CACTVS_TAUTO_COUNT>
-1

> <PUBCHEM_COORDINATE_TYPE>
1
5
255

$$$$
