164804
  -OEChem-08152605162D

  5  0  0     0  0  0  0  0  0999 V2000
    3.7321    0.7500    0.0000 Se  0  6  0  0  0  0  0  0  0  0  0  0
    2.0000    0.7500    0.0000 Se  0  6  0  0  0  0  0  0  0  0  0  0
    2.8660   -0.7500    0.0000 Se  0  6  0  0  0  0  0  0  0  0  0  0
    2.8660    0.2500    0.0000 Al  0  1  0  0  0  0  0  0  0  0  0  0
    4.5981    0.2500    0.0000 Al  0  1  0  0  0  0  0  0  0  0  0  0
M  CHG  5   1  -2   2  -2   3  -2   4   3   5   3
M  END
> <PUBCHEM_COMPOUND_CID>
164804

> <PUBCHEM_COMPOUND_CANONICALIZED>
1

> <PUBCHEM_CACTVS_COMPLEXITY>
0

> <PUBCHEM_CACTVS_HBOND_ACCEPTOR>
3

> <PUBCHEM_CACTVS_HBOND_DONOR>
0

> <PUBCHEM_CACTVS_ROTATABLE_BOND>
0

> <PUBCHEM_CACTVS_SUBSKEYS>
AAADcQAAAAAAABAAIAAAAAAAAAAAAAAAAAAAAAAAAAAAAAAAAAAAAAAAAAAAAAAAAAAAAAAAAAAAAAAAAAAAAAAAAAAAAAAAAAAAAAAAAAAAAAAAAAAAAAAAAAAAAAAAAAAAAAAAAAAAAAAAAAAAAAAAAA==

> <PUBCHEM_IUPAC_OPENEYE_NAME>
dialuminum;tris(selenium(2-))

> <PUBCHEM_IUPAC_CAS_NAME>
dialuminum;tris(selenium(2-))

> <PUBCHEM_IUPAC_NAME_MARKUP>
dialuminum;tris(selenium(2-))

> <PUBCHEM_IUPAC_NAME>
dialuminum;tris(selenium(2-))

> <PUBCHEM_IUPAC_SYSTEMATIC_NAME>
dialuminum;tris(selenium(2-))

> <PUBCHEM_IUPAC_TRADITIONAL_NAME>
dialuminum;tris(selenium(2-))

> <PUBCHEM_IUPAC_INCHI>
InChI=1S/2Al.3Se/q2*+3;3*-2

> <PUBCHEM_IUPAC_INCHIKEY>
CYRGZAAAWQRSMF-UHFFFAOYSA-N

> <PUBCHEM_EXACT_MASS>
291.71343

> <PUBCHEM_MOLECULAR_FORMULA>
Al2Se3

> <PUBCHEM_MOLECULAR_WEIGHT>
290.9

> <PUBCHEM_SMILES>
[Al+3].[Al+3].[Se-2].[Se-2].[Se-2]

> <PUBCHEM_CONNECTIVITY_SMILES>
[Al+3].[Al+3].[Se-2].[Se-2].[Se-2]

> <PUBCHEM_CACTVS_TPSA>
0

> <PUBCHEM_MONOISOTOPIC_WEIGHT>
293.71264

> <PUBCHEM_TOTAL_CHARGE>
0

> <PUBCHEM_HEAVY_ATOM_COUNT>
5

> <PUBCHEM_ATOM_DEF_STEREO_COUNT>
0

> <PUBCHEM_ATOM_UDEF_STEREO_COUNT>
0

> <PUBCHEM_BOND_DEF_STEREO_COUNT>
0

> <PUBCHEM_BOND_UDEF_STEREO_COUNT>
0

> <PUBCHEM_ISOTOPIC_ATOM_COUNT>
0

> <PUBCHEM_COMPONENT_COUNT>
5

> <PUBCHEM_CACTVS_TAUTO_COUNT>
-1

> <PUBCHEM_COORDINATE_TYPE>
1
5
255

$$$$
