91307
  -OEChem-08152607132D

  2  1  0     0  0  0  0  0  0999 V2000
    3.0000    0.0000    0.0000 Sb  0  0  0  0  0  0  0  0  0  0  0  0
    2.0000    0.0000    0.0000 Al  0  0  0  0  0  0  0  0  0  0  0  0
  1  2  3  0  0  0  0
M  END
> <PUBCHEM_COMPOUND_CID>
91307

> <PUBCHEM_COMPOUND_CANONICALIZED>
1

> <PUBCHEM_CACTVS_COMPLEXITY>
10

> <PUBCHEM_CACTVS_HBOND_ACCEPTOR>
0

> <PUBCHEM_CACTVS_HBOND_DONOR>
0

> <PUBCHEM_CACTVS_ROTATABLE_BOND>
0

> <PUBCHEM_CACTVS_SUBSKEYS>
AAADcQAAAAAAABAAAABAAAAAAAAAAAAAAAAAAAAAAAAAAAAAAAAAAAAAAAAAAAAAAAAAAAAAAAAAAAAAAAAAAAAAAAAAAAAAAAAAAAAAAAAAAAAAAAAAAAAAAAAAAAAAAAAAAAAAAAAAAAAAAAAAAAAAAA==

> <PUBCHEM_IUPAC_OPENEYE_NAME>
alumanylidynestibane

> <PUBCHEM_IUPAC_CAS_NAME>
alumanylidynestibine

> <PUBCHEM_IUPAC_NAME_MARKUP>
alumanylidynestibane

> <PUBCHEM_IUPAC_NAME>
alumanylidynestibane

> <PUBCHEM_IUPAC_SYSTEMATIC_NAME>
alumanylidynestibane

> <PUBCHEM_IUPAC_TRADITIONAL_NAME>
alumanylidynestibine

> <PUBCHEM_IUPAC_INCHI>
InChI=1S/Al.Sb

> <PUBCHEM_IUPAC_INCHIKEY>
LVQULNGDVIKLPK-UHFFFAOYSA-N

> <PUBCHEM_EXACT_MASS>
147.88535

> <PUBCHEM_MOLECULAR_FORMULA>
AlSb

> <PUBCHEM_MOLECULAR_WEIGHT>
148.742

> <PUBCHEM_SMILES>
[Al]#[Sb]

> <PUBCHEM_CONNECTIVITY_SMILES>
[Al]#[Sb]

> <PUBCHEM_CACTVS_TPSA>
0

> <PUBCHEM_MONOISOTOPIC_WEIGHT>
147.88535

> <PUBCHEM_TOTAL_CHARGE>
0

> <PUBCHEM_HEAVY_ATOM_COUNT>
2

> <PUBCHEM_ATOM_DEF_STEREO_COUNT>
0

> <PUBCHEM_ATOM_UDEF_STEREO_COUNT>
0

> <PUBCHEM_BOND_DEF_STEREO_COUNT>
0

> <PUBCHEM_BOND_UDEF_STEREO_COUNT>
0

> <PUBCHEM_ISOTOPIC_ATOM_COUNT>
0

> <PUBCHEM_COMPONENT_COUNT>
1

> <PUBCHEM_CACTVS_TAUTO_COUNT>
-1

> <PUBCHEM_COORDINATE_TYPE>
1
5
255

$$$$
