159369
  -OEChem-08152607132D

  5  0  0     0  0  0  0  0  0999 V2000
    3.7321    0.7500    0.0000 S   0  6  0  0  0  0  0  0  0  0  0  0
    2.0000    0.7500    0.0000 S   0  6  0  0  0  0  0  0  0  0  0  0
    2.8660   -0.7500    0.0000 S   0  6  0  0  0  0  0  0  0  0  0  0
    2.8660    0.2500    0.0000 Al  0  1  0  0  0  0  0  0  0  0  0  0
    4.5981    0.2500    0.0000 Al  0  1  0  0  0  0  0  0  0  0  0  0
M  CHG  5   1  -2   2  -2   3  -2   4   3   5   3
M  END
> <PUBCHEM_COMPOUND_CID>
159369

> <PUBCHEM_COMPOUND_CANONICALIZED>
1

> <PUBCHEM_CACTVS_COMPLEXITY>
0

> <PUBCHEM_CACTVS_HBOND_ACCEPTOR>
3

> <PUBCHEM_CACTVS_HBOND_DONOR>
0

> <PUBCHEM_CACTVS_ROTATABLE_BOND>
0

> <PUBCHEM_CACTVS_SUBSKEYS>
AAADcQAAAABgABAAAAAAAAAAAAAAAAAAAAAAAAAAAAAAAAAAAAAAAAAAAAAAAAAAAAAAAAAAAAAAAAAAAAAAAAAAAAAAAAAAAAAAAAAAAAAAAAAAAAAAAAAAAAAAAAAAAAAAAAAAAAAAAAAAAAAAAAAAAA==

> <PUBCHEM_IUPAC_OPENEYE_NAME>
dialuminum;trisulfide

> <PUBCHEM_IUPAC_CAS_NAME>
dialuminum;trisulfide

> <PUBCHEM_IUPAC_NAME_MARKUP>
dialuminum;trisulfide

> <PUBCHEM_IUPAC_NAME>
dialuminum;trisulfide

> <PUBCHEM_IUPAC_SYSTEMATIC_NAME>
dialuminum;trisulfide

> <PUBCHEM_IUPAC_TRADITIONAL_NAME>
dialuminum;trisulfide

> <PUBCHEM_IUPAC_INCHI>
InChI=1S/2Al.3S/q2*+3;3*-2

> <PUBCHEM_IUPAC_INCHIKEY>
COOGPNLGKIHLSK-UHFFFAOYSA-N

> <PUBCHEM_EXACT_MASS>
149.879290

> <PUBCHEM_MOLECULAR_FORMULA>
Al2S3

> <PUBCHEM_MOLECULAR_WEIGHT>
150.2

> <PUBCHEM_SMILES>
[Al+3].[Al+3].[S-2].[S-2].[S-2]

> <PUBCHEM_CONNECTIVITY_SMILES>
[Al+3].[Al+3].[S-2].[S-2].[S-2]

> <PUBCHEM_CACTVS_TPSA>
3

> <PUBCHEM_MONOISOTOPIC_WEIGHT>
149.879290

> <PUBCHEM_TOTAL_CHARGE>
0

> <PUBCHEM_HEAVY_ATOM_COUNT>
5

> <PUBCHEM_ATOM_DEF_STEREO_COUNT>
0

> <PUBCHEM_ATOM_UDEF_STEREO_COUNT>
0

> <PUBCHEM_BOND_DEF_STEREO_COUNT>
0

> <PUBCHEM_BOND_UDEF_STEREO_COUNT>
0

> <PUBCHEM_ISOTOPIC_ATOM_COUNT>
0

> <PUBCHEM_COMPONENT_COUNT>
5

> <PUBCHEM_CACTVS_TAUTO_COUNT>
-1

> <PUBCHEM_COORDINATE_TYPE>
1
5
255

$$$$
