16702504
  -OEChem-08152606202D

  7  6  0     0  0  0  0  0  0999 V2000
    3.7320    0.5000    0.0000 Al  0  0  0  0  0  0  0  0  0  0  0  0
    5.4641    1.5000    0.0000 N   0  0  0  0  0  0  0  0  0  0  0  0
    2.0000    1.5000    0.0000 N   0  0  0  0  0  0  0  0  0  0  0  0
    3.7320   -1.5000    0.0000 N   0  0  0  0  0  0  0  0  0  0  0  0
    4.5981    1.0000    0.0000 C   0  0  0  0  0  0  0  0  0  0  0  0
    2.8660    1.0000    0.0000 C   0  0  0  0  0  0  0  0  0  0  0  0
    3.7320   -0.5000    0.0000 C   0  0  0  0  0  0  0  0  0  0  0  0
  1  5  1  0  0  0  0
  1  6  1  0  0  0  0
  1  7  1  0  0  0  0
  2  5  3  0  0  0  0
  3  6  3  0  0  0  0
  4  7  3  0  0  0  0
M  END
> <PUBCHEM_COMPOUND_CID>
16702504

> <PUBCHEM_COMPOUND_CANONICALIZED>
1

> <PUBCHEM_CACTVS_COMPLEXITY>
154

> <PUBCHEM_CACTVS_HBOND_ACCEPTOR>
3

> <PUBCHEM_CACTVS_HBOND_DONOR>
0

> <PUBCHEM_CACTVS_ROTATABLE_BOND>
0

> <PUBCHEM_CACTVS_SUBSKEYS>
AAADcQBDAAAAABAAAAAAAAAAAAAAAAAAAAAAAAAAAAAAAAAAAAAABCAAAAAAAAAAAAAAAAAAAAAQAAAAAAAAAAAAAAAAAAAAAAAAAAAAAAAAAAAAAAAAAAAAAAAAAAAAAAAAAAAAAAAAAAAAAAAAAAAAAA==

> <PUBCHEM_IUPAC_OPENEYE_NAME>
dicyanoalumanylformonitrile

> <PUBCHEM_IUPAC_CAS_NAME>
dicyanoalumanylformonitrile

> <PUBCHEM_IUPAC_NAME_MARKUP>
dicyanoalumanylformonitrile

> <PUBCHEM_IUPAC_NAME>
dicyanoalumanylformonitrile

> <PUBCHEM_IUPAC_SYSTEMATIC_NAME>
dicyanoalumanylmethanenitrile

> <PUBCHEM_IUPAC_TRADITIONAL_NAME>
dicyanoalumanylformonitrile

> <PUBCHEM_IUPAC_INCHI>
InChI=1S/3CN.Al/c3*1-2;

> <PUBCHEM_IUPAC_INCHIKEY>
HMOJUCUJIXEKOH-UHFFFAOYSA-N

> <PUBCHEM_EXACT_MASS>
104.9907604

> <PUBCHEM_MOLECULAR_FORMULA>
C3AlN3

> <PUBCHEM_MOLECULAR_WEIGHT>
105.03

> <PUBCHEM_SMILES>
C(#N)[Al](C#N)C#N

> <PUBCHEM_CONNECTIVITY_SMILES>
C(#N)[Al](C#N)C#N

> <PUBCHEM_CACTVS_TPSA>
71.4

> <PUBCHEM_MONOISOTOPIC_WEIGHT>
104.9907604

> <PUBCHEM_TOTAL_CHARGE>
0

> <PUBCHEM_HEAVY_ATOM_COUNT>
7

> <PUBCHEM_ATOM_DEF_STEREO_COUNT>
0

> <PUBCHEM_ATOM_UDEF_STEREO_COUNT>
0

> <PUBCHEM_BOND_DEF_STEREO_COUNT>
0

> <PUBCHEM_BOND_UDEF_STEREO_COUNT>
0

> <PUBCHEM_ISOTOPIC_ATOM_COUNT>
0

> <PUBCHEM_COMPONENT_COUNT>
1

> <PUBCHEM_CACTVS_TAUTO_COUNT>
-1

> <PUBCHEM_COORDINATE_TYPE>
1
5
255

$$$$
