12674524
  -OEChem-08152606172D

  5  2  0     0  0  0  0  0  0999 V2000
    3.7321   -0.2500    0.0000 Te  0  0  0  0  0 15  0  0  0  0  0  0
    5.4641   -0.2500    0.0000 Te  0  0  0  0  0  0  0  0  0  0  0  0
    2.0000   -0.2500    0.0000 Te  0  0  0  0  0  0  0  0  0  0  0  0
    4.5981    0.2500    0.0000 Al  0  4  0  0  0  0  0  0  0  0  0  0
    2.8660    0.2500    0.0000 Al  0  4  0  0  0  0  0  0  0  0  0  0
  2  4  2  0  0  0  0
  3  5  2  0  0  0  0
M  RAD  2   4   2   5   2
M  END
> <PUBCHEM_COMPOUND_CID>
12674524

> <PUBCHEM_COMPOUND_CANONICALIZED>
1

> <PUBCHEM_CACTVS_COMPLEXITY>
6.9

> <PUBCHEM_CACTVS_HBOND_ACCEPTOR>
0

> <PUBCHEM_CACTVS_HBOND_DONOR>
0

> <PUBCHEM_CACTVS_ROTATABLE_BOND>
0

> <PUBCHEM_CACTVS_SUBSKEYS>
AAADcQAAAAAAABAAAAAgAAAAAAAAAAAAAAAAAAAAAAAAAAAAAAAAAAAAAAAAAAAAAAAAAAAAAAAAAAAAAAAAAAAAAAAAAAAAAAAAAAAAAAAAAAAAAAAAAAAAAAAAAAAAAAAAAAAAAAAAAAAAAAAAAAAAAA==

> <PUBCHEM_IUPAC_INCHI>
InChI=1S/2Al.3Te

> <PUBCHEM_IUPAC_INCHIKEY>
RETRTUZSQWNRQG-UHFFFAOYSA-N

> <PUBCHEM_EXACT_MASS>
441.679984

> <PUBCHEM_MOLECULAR_FORMULA>
Al2Te3

> <PUBCHEM_MOLECULAR_WEIGHT>
436.8

> <PUBCHEM_SMILES>
[Al]=[Te].[Al]=[Te].[Te]

> <PUBCHEM_CONNECTIVITY_SMILES>
[Al]=[Te].[Al]=[Te].[Te]

> <PUBCHEM_CACTVS_TPSA>
0

> <PUBCHEM_MONOISOTOPIC_WEIGHT>
443.681745

> <PUBCHEM_TOTAL_CHARGE>
0

> <PUBCHEM_HEAVY_ATOM_COUNT>
5

> <PUBCHEM_ATOM_DEF_STEREO_COUNT>
0

> <PUBCHEM_ATOM_UDEF_STEREO_COUNT>
0

> <PUBCHEM_BOND_DEF_STEREO_COUNT>
0

> <PUBCHEM_BOND_UDEF_STEREO_COUNT>
0

> <PUBCHEM_ISOTOPIC_ATOM_COUNT>
0

> <PUBCHEM_COMPONENT_COUNT>
3

> <PUBCHEM_CACTVS_TAUTO_COUNT>
-1

> <PUBCHEM_NONSTANDARDBOND>
1  4  6
1  5  6

> <PUBCHEM_COORDINATE_TYPE>
1
5
255

$$$$
