516859
  -OEChem-08152607062D

  9  7  0     0  0  0  0  0  0999 V2000
    0.8660    1.0000    0.0000 V   0  0  0  0  0  0  0  0  0  0  0  0
    0.0000    1.5000    0.0000 O   0  5  0  0  0  0  0  0  0  0  0  0
    1.7321    1.5000    0.0000 O   0  0  0  0  0  0  0  0  0  0  0  0
    0.8660    0.0000    0.0000 O   0  0  0  0  0  0  0  0  0  0  0  0
    0.8660    4.0369    0.0000 N   0  3  0  0  0  0  0  0  0  0  0  0
    1.4030    4.3469    0.0000 H   0  0  0  0  0  0  0  0  0  0  0  0
    0.3291    3.7269    0.0000 H   0  0  0  0  0  0  0  0  0  0  0  0
    0.5560    4.5739    0.0000 H   0  0  0  0  0  0  0  0  0  0  0  0
    1.1760    3.5000    0.0000 H   0  0  0  0  0  0  0  0  0  0  0  0
  1  2  1  0  0  0  0
  1  3  2  0  0  0  0
  1  4  2  0  0  0  0
  5  6  1  0  0  0  0
  5  7  1  0  0  0  0
  5  8  1  0  0  0  0
  5  9  1  0  0  0  0
M  CHG  2   2  -1   5   1
M  END
> <PUBCHEM_COMPOUND_CID>
516859

> <PUBCHEM_COMPOUND_CANONICALIZED>
1

> <PUBCHEM_CACTVS_COMPLEXITY>
36.5

> <PUBCHEM_CACTVS_HBOND_ACCEPTOR>
3

> <PUBCHEM_CACTVS_HBOND_DONOR>
1

> <PUBCHEM_CACTVS_ROTATABLE_BOND>
0

> <PUBCHEM_CACTVS_SUBSKEYS>
AAADcYACMAAAAAEAAAAAAAAAAAAAAAAAAAAAAAAAAAAAAAAAAAAAAAAQAAAAAAAAAAAAAAAAAAAAAAAAAAAAAAAAAAAAAAAAAAAAAAAAAAAAAAAAAAAAAAAAAAAAAAAAAAAAAAAAAAAAAAAAAAAAAAAAAA==

> <PUBCHEM_IUPAC_OPENEYE_NAME>
ammonium oxido(dioxo)vanadium

> <PUBCHEM_IUPAC_CAS_NAME>
ammonium oxido(dioxo)vanadium

> <PUBCHEM_IUPAC_NAME_MARKUP>
azanium oxido(dioxo)vanadium

> <PUBCHEM_IUPAC_NAME>
azanium oxido(dioxo)vanadium

> <PUBCHEM_IUPAC_SYSTEMATIC_NAME>
azanium oxidanidyl-bis(oxidanylidene)vanadium

> <PUBCHEM_IUPAC_TRADITIONAL_NAME>
ammonium diketo(oxido)vanadium

> <PUBCHEM_IUPAC_INCHI>
InChI=1S/H3N.3O.V/h1H3;;;;/q;;;-1;/p+1

> <PUBCHEM_IUPAC_INCHIKEY>
UNTBPXHCXVWYOI-UHFFFAOYSA-O

> <PUBCHEM_EXACT_MASS>
116.963076

> <PUBCHEM_MOLECULAR_FORMULA>
H4NO3V

> <PUBCHEM_MOLECULAR_WEIGHT>
116.978

> <PUBCHEM_SMILES>
[NH4+].[O-][V](=O)=O

> <PUBCHEM_CONNECTIVITY_SMILES>
[NH4+].[O-][V](=O)=O

> <PUBCHEM_CACTVS_TPSA>
58.2

> <PUBCHEM_MONOISOTOPIC_WEIGHT>
116.963076

> <PUBCHEM_TOTAL_CHARGE>
0

> <PUBCHEM_HEAVY_ATOM_COUNT>
5

> <PUBCHEM_ATOM_DEF_STEREO_COUNT>
0

> <PUBCHEM_ATOM_UDEF_STEREO_COUNT>
0

> <PUBCHEM_BOND_DEF_STEREO_COUNT>
0

> <PUBCHEM_BOND_UDEF_STEREO_COUNT>
0

> <PUBCHEM_ISOTOPIC_ATOM_COUNT>
0

> <PUBCHEM_COMPONENT_COUNT>
2

> <PUBCHEM_CACTVS_TAUTO_COUNT>
-1

> <PUBCHEM_COORDINATE_TYPE>
1
5
255

$$$$
