56845482
  -OEChem-08152606492D

 10  8  0     0  0  0  0  0  0999 V2000
    0.7071    0.7071    0.0000 Au  0  5  0  0  0  0  0  0  0  0  0  0
    0.0000    0.0000    0.0000 Cl  0  0  0  0  0  0  0  0  0  0  0  0
    1.4142    0.0000    0.0000 Cl  0  0  0  0  0  0  0  0  0  0  0  0
    1.4142    1.4142    0.0000 Cl  0  0  0  0  0  0  0  0  0  0  0  0
    0.0000    1.4142    0.0000 Cl  0  0  0  0  0  0  0  0  0  0  0  0
    0.7071    3.9512    0.0000 N   0  3  0  0  0  0  0  0  0  0  0  0
    1.2440    4.2612    0.0000 H   0  0  0  0  0  0  0  0  0  0  0  0
    0.1702    3.6412    0.0000 H   0  0  0  0  0  0  0  0  0  0  0  0
    0.3971    4.4881    0.0000 H   0  0  0  0  0  0  0  0  0  0  0  0
    1.0171    3.4142    0.0000 H   0  0  0  0  0  0  0  0  0  0  0  0
  1  2  1  1  0  0  0
  1  3  1  1  0  0  0
  1  4  1  6  0  0  0
  1  5  1  6  0  0  0
  6  7  1  0  0  0  0
  6  8  1  0  0  0  0
  6  9  1  0  0  0  0
  6 10  1  0  0  0  0
M  CHG  2   1  -1   6   1
M  END
> <PUBCHEM_COMPOUND_CID>
56845482

> <PUBCHEM_COMPOUND_CANONICALIZED>
1

> <PUBCHEM_CACTVS_COMPLEXITY>
19.1

> <PUBCHEM_CACTVS_HBOND_ACCEPTOR>
1

> <PUBCHEM_CACTVS_HBOND_DONOR>
1

> <PUBCHEM_CACTVS_ROTATABLE_BOND>
0

> <PUBCHEM_CACTVS_SUBSKEYS>
AAADcYACAAAHAAAAAAAAAgAAAAAAAAAAAAAAAAAAAAAAAAAAAAAAAAAQAAAAAAAAAAAAAAAAAAAAAAAAAAAAAAAAAAAAAAAAAAAAAAAAAAAAAAAAAAAAAAAAAAAAAAAAAAAAAAAAAAAAAAAAAAAAAAAAAA==

> <PUBCHEM_IUPAC_OPENEYE_NAME>
ammonium tetrachlorogold(1-)

> <PUBCHEM_IUPAC_CAS_NAME>
ammonium tetrachlorogold(1-)

> <PUBCHEM_IUPAC_NAME_MARKUP>
azanium tetrachlorogold(1-)

> <PUBCHEM_IUPAC_NAME>
azanium tetrachlorogold(1-)

> <PUBCHEM_IUPAC_SYSTEMATIC_NAME>
azanium tetrakis(chloranyl)gold(1-)

> <PUBCHEM_IUPAC_TRADITIONAL_NAME>
ammonium tetrachlorogold(1-)

> <PUBCHEM_IUPAC_INCHI>
InChI=1S/Au.4ClH.H3N/h;4*1H;1H3/q+3;;;;;/p-3

> <PUBCHEM_IUPAC_INCHIKEY>
WPEJSSRSFRWYJB-UHFFFAOYSA-K

> <PUBCHEM_EXACT_MASS>
356.873405

> <PUBCHEM_MOLECULAR_FORMULA>
AuCl4H4N

> <PUBCHEM_MOLECULAR_WEIGHT>
356.8

> <PUBCHEM_SMILES>
[NH4+].Cl[Au-](Cl)(Cl)Cl

> <PUBCHEM_CONNECTIVITY_SMILES>
[NH4+].Cl[Au-](Cl)(Cl)Cl

> <PUBCHEM_CACTVS_TPSA>
1

> <PUBCHEM_MONOISOTOPIC_WEIGHT>
354.876355

> <PUBCHEM_TOTAL_CHARGE>
0

> <PUBCHEM_HEAVY_ATOM_COUNT>
6

> <PUBCHEM_ATOM_DEF_STEREO_COUNT>
0

> <PUBCHEM_ATOM_UDEF_STEREO_COUNT>
0

> <PUBCHEM_BOND_DEF_STEREO_COUNT>
0

> <PUBCHEM_BOND_UDEF_STEREO_COUNT>
0

> <PUBCHEM_ISOTOPIC_ATOM_COUNT>
0

> <PUBCHEM_COMPONENT_COUNT>
2

> <PUBCHEM_CACTVS_TAUTO_COUNT>
-1

> <PUBCHEM_COORDINATE_TYPE>
1
5
255

> <PUBCHEM_BONDANNOTATIONS>
1  2  5
1  3  5
1  4  6
1  5  6

$$$$
