16211508
  -OEChem-08152605032D

 15 12  0     0  0  0  0  0  0999 V2000
    3.7810    0.7071    0.0000 Pt  0  6  0  0  0  0  0  0  0  0  0  0
    4.4881    0.0000    0.0000 Cl  0  0  0  0  0  0  0  0  0  0  0  0
    3.0739    0.0000    0.0000 Cl  0  0  0  0  0  0  0  0  0  0  0  0
    4.4881    1.4142    0.0000 Cl  0  0  0  0  0  0  0  0  0  0  0  0
    3.0739    1.4142    0.0000 Cl  0  0  0  0  0  0  0  0  0  0  0  0
    0.5369    2.2440    0.0000 N   0  3  0  0  0  0  0  0  0  0  0  0
    3.7810    3.9512    0.0000 N   0  3  0  0  0  0  0  0  0  0  0  0
    1.0739    2.5540    0.0000 H   0  0  0  0  0  0  0  0  0  0  0  0
    0.0000    1.9340    0.0000 H   0  0  0  0  0  0  0  0  0  0  0  0
    0.2269    2.7810    0.0000 H   0  0  0  0  0  0  0  0  0  0  0  0
    0.8469    1.7071    0.0000 H   0  0  0  0  0  0  0  0  0  0  0  0
    4.3179    4.2612    0.0000 H   0  0  0  0  0  0  0  0  0  0  0  0
    3.2440    3.6412    0.0000 H   0  0  0  0  0  0  0  0  0  0  0  0
    3.4710    4.4881    0.0000 H   0  0  0  0  0  0  0  0  0  0  0  0
    4.0910    3.4142    0.0000 H   0  0  0  0  0  0  0  0  0  0  0  0
  1  2  1  1  0  0  0
  1  3  1  1  0  0  0
  1  4  1  6  0  0  0
  1  5  1  6  0  0  0
  6  8  1  0  0  0  0
  6  9  1  0  0  0  0
  6 10  1  0  0  0  0
  6 11  1  0  0  0  0
  7 12  1  0  0  0  0
  7 13  1  0  0  0  0
  7 14  1  0  0  0  0
  7 15  1  0  0  0  0
M  CHG  3   1  -2   6   1   7   1
M  END
> <PUBCHEM_COMPOUND_CID>
16211508

> <PUBCHEM_COMPOUND_CANONICALIZED>
1

> <PUBCHEM_CACTVS_COMPLEXITY>
19.1

> <PUBCHEM_CACTVS_HBOND_ACCEPTOR>
1

> <PUBCHEM_CACTVS_HBOND_DONOR>
2

> <PUBCHEM_CACTVS_ROTATABLE_BOND>
0

> <PUBCHEM_CACTVS_SUBSKEYS>
AAADccADAAAHAAAAAAAABAAAAAAAAAAAAAAAAAAAAAAAAAAAAAAAAAAQAAAAAAAAAAAAAAAAAAAAAAAAAAAAAAAAAAAAAAAAAAAAAAAAAAAAAAAAAAAAAAAAAAAAAAAAAAAAAAAAAAAAAAAAAAAAAAAAAA==

> <PUBCHEM_IUPAC_OPENEYE_NAME>
diammonium;tetrachloroplatinum(2-)

> <PUBCHEM_IUPAC_CAS_NAME>
diammonium;tetrachloroplatinum(2-)

> <PUBCHEM_IUPAC_NAME_MARKUP>
diazanium;tetrachloroplatinum(2-)

> <PUBCHEM_IUPAC_NAME>
diazanium;tetrachloroplatinum(2-)

> <PUBCHEM_IUPAC_SYSTEMATIC_NAME>
diazanium;tetrakis(chloranyl)platinum(2-)

> <PUBCHEM_IUPAC_TRADITIONAL_NAME>
diammonium;tetrachloroplatinum(2-)

> <PUBCHEM_IUPAC_INCHI>
InChI=1S/4ClH.2H3N.Pt/h4*1H;2*1H3;/q;;;;;;+2/p-2

> <PUBCHEM_IUPAC_INCHIKEY>
QJIMNDWDOXTTBR-UHFFFAOYSA-L

> <PUBCHEM_EXACT_MASS>
372.906003

> <PUBCHEM_MOLECULAR_FORMULA>
Cl4H8N2Pt

> <PUBCHEM_MOLECULAR_WEIGHT>
373.0

> <PUBCHEM_SMILES>
[NH4+].[NH4+].Cl[Pt-2](Cl)(Cl)Cl

> <PUBCHEM_CONNECTIVITY_SMILES>
[NH4+].[NH4+].Cl[Pt-2](Cl)(Cl)Cl

> <PUBCHEM_CACTVS_TPSA>
2

> <PUBCHEM_MONOISOTOPIC_WEIGHT>
370.908953

> <PUBCHEM_TOTAL_CHARGE>
0

> <PUBCHEM_HEAVY_ATOM_COUNT>
7

> <PUBCHEM_ATOM_DEF_STEREO_COUNT>
0

> <PUBCHEM_ATOM_UDEF_STEREO_COUNT>
0

> <PUBCHEM_BOND_DEF_STEREO_COUNT>
0

> <PUBCHEM_BOND_UDEF_STEREO_COUNT>
0

> <PUBCHEM_ISOTOPIC_ATOM_COUNT>
0

> <PUBCHEM_COMPONENT_COUNT>
3

> <PUBCHEM_CACTVS_TAUTO_COUNT>
-1

> <PUBCHEM_COORDINATE_TYPE>
1
5
255

> <PUBCHEM_BONDANNOTATIONS>
1  2  5
1  3  5
1  4  6
1  5  6

$$$$
