9577286
  -OEChem-08152604362D

 10  8  0     0  0  0  0  0  0999 V2000
    0.7071    0.7071    0.0000 Tc  2  0  0  0  0  0  0  0  0  0  0  0
    0.0000    0.0000    0.0000 O   0  5  0  0  0  0  0  0  0  0  0  0
    1.4142    0.0000    0.0000 O   0  0  0  0  0  0  0  0  0  0  0  0
    1.4142    1.4142    0.0000 O   0  0  0  0  0  0  0  0  0  0  0  0
    0.0000    1.4142    0.0000 O   0  0  0  0  0  0  0  0  0  0  0  0
    0.7071    3.9512    0.0000 N   0  3  0  0  0  0  0  0  0  0  0  0
    1.2440    4.2612    0.0000 H   0  0  0  0  0  0  0  0  0  0  0  0
    0.1702    3.6412    0.0000 H   0  0  0  0  0  0  0  0  0  0  0  0
    0.3971    4.4881    0.0000 H   0  0  0  0  0  0  0  0  0  0  0  0
    1.0171    3.4142    0.0000 H   0  0  0  0  0  0  0  0  0  0  0  0
  1  2  1  1  0  0  0
  1  3  2  1  0  0  0
  1  4  2  6  0  0  0
  1  5  2  6  0  0  0
  6  7  1  0  0  0  0
  6  8  1  0  0  0  0
  6  9  1  0  0  0  0
  6 10  1  0  0  0  0
M  CHG  2   2  -1   6   1
M  ISO  1   1  99
M  END
> <PUBCHEM_COMPOUND_CID>
9577286

> <PUBCHEM_COMPOUND_CANONICALIZED>
1

> <PUBCHEM_CACTVS_COMPLEXITY>
95.8

> <PUBCHEM_CACTVS_HBOND_ACCEPTOR>
4

> <PUBCHEM_CACTVS_HBOND_DONOR>
1

> <PUBCHEM_CACTVS_ROTATABLE_BOND>
0

> <PUBCHEM_CACTVS_SUBSKEYS>
AAADcYACOAAAAAAAAAAAAAAAQAAAAAAAAAAAAAAAAAAAAAAAAAAAAAAQAAAAAAAAAAAAAAAAAAAAAAAAAAAAAAAAAAAAAAAAAAAAAAAAAAAAAAAAAAAAAAAAAAAAAAAAAAAAAAAAAAAAAAAAAAAAAAAAAA==

> <PUBCHEM_IUPAC_OPENEYE_NAME>
ammonium oxido(trioxo)(99Tc)technetium-99

> <PUBCHEM_IUPAC_CAS_NAME>
ammonium oxido(trioxo)(99Tc)technetium-99

> <PUBCHEM_IUPAC_NAME_MARKUP>
azanium oxido(trioxo)(<SUP>99</SUP>Tc)technetium-99

> <PUBCHEM_IUPAC_NAME>
azanium oxido(trioxo)(99Tc)technetium-99

> <PUBCHEM_IUPAC_SYSTEMATIC_NAME>
azanium oxidanidyl-tris(oxidanylidene)(99Tc)technetium-99

> <PUBCHEM_IUPAC_TRADITIONAL_NAME>
ammonium triketo(oxido)(99Tc)technetium-99

> <PUBCHEM_IUPAC_INCHI>
InChI=1S/H3N.4O.Tc/h1H3;;;;;/q;;;;-1;/p+1/i;;;;;1+1

> <PUBCHEM_IUPAC_INCHIKEY>
WJULHBIORCQBSY-PUQAOBSFSA-O

> <PUBCHEM_EXACT_MASS>
180.920282

> <PUBCHEM_MOLECULAR_FORMULA>
H4NO4Tc

> <PUBCHEM_MOLECULAR_WEIGHT>
180.943

> <PUBCHEM_SMILES>
[NH4+].[O-][99Tc](=O)(=O)=O

> <PUBCHEM_CONNECTIVITY_SMILES>
[NH4+].[O-][Tc](=O)(=O)=O

> <PUBCHEM_CACTVS_TPSA>
75.3

> <PUBCHEM_MONOISOTOPIC_WEIGHT>
180.920282

> <PUBCHEM_TOTAL_CHARGE>
0

> <PUBCHEM_HEAVY_ATOM_COUNT>
6

> <PUBCHEM_ATOM_DEF_STEREO_COUNT>
0

> <PUBCHEM_ATOM_UDEF_STEREO_COUNT>
0

> <PUBCHEM_BOND_DEF_STEREO_COUNT>
0

> <PUBCHEM_BOND_UDEF_STEREO_COUNT>
0

> <PUBCHEM_ISOTOPIC_ATOM_COUNT>
1

> <PUBCHEM_COMPONENT_COUNT>
2

> <PUBCHEM_CACTVS_TAUTO_COUNT>
-1

> <PUBCHEM_COORDINATE_TYPE>
1
5
255

> <PUBCHEM_BONDANNOTATIONS>
1  2  5
1  3  5
1  4  6
1  5  6

$$$$
