432515
  -OEChem-08152604392D

  8  7  0     0  0  0  0  0  0999 V2000
    3.4030   -0.2685    0.0000 Sb  0  0  0  0  0  0  0  0  0  0  0  0
    4.2690    0.2315    0.0000 O   0  0  0  0  0  0  0  0  0  0  0  0
    2.5369   -0.7685    0.0000 O   0  0  0  0  0  0  0  0  0  0  0  0
    2.9030    0.5976    0.0000 O   0  0  0  0  0  0  0  0  0  0  0  0
    3.9030   -1.1345    0.0000 O   0  0  0  0  0  0  0  0  0  0  0  0
    4.8059   -0.0785    0.0000 H   0  0  0  0  0  0  0  0  0  0  0  0
    2.0000   -0.4585    0.0000 H   0  0  0  0  0  0  0  0  0  0  0  0
    3.2130    1.1345    0.0000 H   0  0  0  0  0  0  0  0  0  0  0  0
  1  2  1  0  0  0  0
  1  3  1  0  0  0  0
  1  4  1  0  0  0  0
  1  5  2  0  0  0  0
  2  6  1  0  0  0  0
  3  7  1  0  0  0  0
  4  8  1  0  0  0  0
M  END
> <PUBCHEM_COMPOUND_CID>
432515

> <PUBCHEM_COMPOUND_CANONICALIZED>
1

> <PUBCHEM_CACTVS_COMPLEXITY>
49.8

> <PUBCHEM_CACTVS_HBOND_ACCEPTOR>
4

> <PUBCHEM_CACTVS_HBOND_DONOR>
3

> <PUBCHEM_CACTVS_ROTATABLE_BOND>
0

> <PUBCHEM_CACTVS_SUBSKEYS>
AAADcQAAOAAAAAAAAABAAAAAAAAAAAAAAAAAAAAAAAAAAAAAAAAAAAAACAAAAAAAAAAAAAAAAAAAAAAAAAAAAAAAAAAAAAAAAAAAAAAAAAAAAAAAAAAAAAAAAAAAAAAAAAAAAAAAAAAAAAAAAAAAAAAAAA==

> <PUBCHEM_IUPAC_OPENEYE_NAME>
stiboric acid

> <PUBCHEM_IUPAC_CAS_NAME>
stiboric acid

> <PUBCHEM_IUPAC_NAME_MARKUP>
stiboric acid

> <PUBCHEM_IUPAC_NAME>
stiboric acid

> <PUBCHEM_IUPAC_SYSTEMATIC_NAME>
stiboric acid

> <PUBCHEM_IUPAC_TRADITIONAL_NAME>
stiboric acid

> <PUBCHEM_IUPAC_INCHI>
InChI=1S/3H2O.O.Sb/h3*1H2;;/q;;;;+3/p-3

> <PUBCHEM_IUPAC_INCHIKEY>
AQTIRDJOWSATJB-UHFFFAOYSA-K

> <PUBCHEM_EXACT_MASS>
187.90694

> <PUBCHEM_MOLECULAR_FORMULA>
H3O4Sb

> <PUBCHEM_MOLECULAR_WEIGHT>
188.78

> <PUBCHEM_SMILES>
O[Sb](=O)(O)O

> <PUBCHEM_CONNECTIVITY_SMILES>
O[Sb](=O)(O)O

> <PUBCHEM_CACTVS_TPSA>
77.8

> <PUBCHEM_MONOISOTOPIC_WEIGHT>
187.90694

> <PUBCHEM_TOTAL_CHARGE>
0

> <PUBCHEM_HEAVY_ATOM_COUNT>
5

> <PUBCHEM_ATOM_DEF_STEREO_COUNT>
0

> <PUBCHEM_ATOM_UDEF_STEREO_COUNT>
0

> <PUBCHEM_BOND_DEF_STEREO_COUNT>
0

> <PUBCHEM_BOND_UDEF_STEREO_COUNT>
0

> <PUBCHEM_ISOTOPIC_ATOM_COUNT>
0

> <PUBCHEM_COMPONENT_COUNT>
1

> <PUBCHEM_CACTVS_TAUTO_COUNT>
-1

> <PUBCHEM_COORDINATE_TYPE>
1
5
255

$$$$
