24554
  -OEChem-08152606142D

  4  3  0     0  0  0  0  0  0999 V2000
    2.8660    0.2500    0.0000 Sb  0  0  0  0  0  0  0  0  0  0  0  0
    3.7321    0.7500    0.0000 F   0  0  0  0  0  0  0  0  0  0  0  0
    2.0000    0.7500    0.0000 F   0  0  0  0  0  0  0  0  0  0  0  0
    2.8660   -0.7500    0.0000 F   0  0  0  0  0  0  0  0  0  0  0  0
  1  2  1  0  0  0  0
  1  3  1  0  0  0  0
  1  4  1  0  0  0  0
M  END
> <PUBCHEM_COMPOUND_CID>
24554

> <PUBCHEM_COMPOUND_CANONICALIZED>
1

> <PUBCHEM_CACTVS_COMPLEXITY>
8

> <PUBCHEM_CACTVS_HBOND_ACCEPTOR>
3

> <PUBCHEM_CACTVS_HBOND_DONOR>
0

> <PUBCHEM_CACTVS_ROTATABLE_BOND>
0

> <PUBCHEM_CACTVS_SUBSKEYS>
AAADcQAAAYAAAAAAAABAAAAAAAAAAAAAAAAAAAAAAAAAAAAAAAAAAAAAAAAAAAAAAAAAAAAAAAAAAAAAAAAAAAAAAAAAAAAAAAAAAAAAAAAAAAAAAAAAAAAAAAAAAAAAAAAAAAAAAAAAAAAAAAAAAAAAAA==

> <PUBCHEM_IUPAC_OPENEYE_NAME>
trifluorostibane

> <PUBCHEM_IUPAC_CAS_NAME>
trifluorostibine

> <PUBCHEM_IUPAC_NAME_MARKUP>
trifluorostibane

> <PUBCHEM_IUPAC_NAME>
trifluorostibane

> <PUBCHEM_IUPAC_SYSTEMATIC_NAME>
tris(fluoranyl)stibane

> <PUBCHEM_IUPAC_TRADITIONAL_NAME>
trifluorostibine

> <PUBCHEM_IUPAC_INCHI>
InChI=1S/3FH.Sb/h3*1H;/q;;;+3/p-3

> <PUBCHEM_IUPAC_INCHIKEY>
GUNJVIDCYZYFGV-UHFFFAOYSA-K

> <PUBCHEM_EXACT_MASS>
177.89902

> <PUBCHEM_MOLECULAR_FORMULA>
F3Sb

> <PUBCHEM_MOLECULAR_WEIGHT>
178.755

> <PUBCHEM_SMILES>
F[Sb](F)F

> <PUBCHEM_CONNECTIVITY_SMILES>
F[Sb](F)F

> <PUBCHEM_CACTVS_TPSA>
0

> <PUBCHEM_MONOISOTOPIC_WEIGHT>
177.89902

> <PUBCHEM_TOTAL_CHARGE>
0

> <PUBCHEM_HEAVY_ATOM_COUNT>
4

> <PUBCHEM_ATOM_DEF_STEREO_COUNT>
0

> <PUBCHEM_ATOM_UDEF_STEREO_COUNT>
0

> <PUBCHEM_BOND_DEF_STEREO_COUNT>
0

> <PUBCHEM_BOND_UDEF_STEREO_COUNT>
0

> <PUBCHEM_ISOTOPIC_ATOM_COUNT>
0

> <PUBCHEM_COMPONENT_COUNT>
1

> <PUBCHEM_CACTVS_TAUTO_COUNT>
-1

> <PUBCHEM_COORDINATE_TYPE>
1
5
255

$$$$
