14813
  -OEChem-08152606442D

  7  6  0     0  0  0  0  0  0999 V2000
    2.8660    0.2500    0.0000 Sb  0  0  0  0  0  0  0  0  0  0  0  0
    4.5981    0.2500    0.0000 Sb  0  0  0  0  0  0  0  0  0  0  0  0
    3.7321    0.7500    0.0000 O   0  0  0  0  0  0  0  0  0  0  0  0
    2.0000    0.7500    0.0000 O   0  0  0  0  0  0  0  0  0  0  0  0
    2.8660   -0.7500    0.0000 O   0  0  0  0  0  0  0  0  0  0  0  0
    5.4641    0.7500    0.0000 O   0  0  0  0  0  0  0  0  0  0  0  0
    4.5981   -0.7500    0.0000 O   0  0  0  0  0  0  0  0  0  0  0  0
  1  3  1  0  0  0  0
  1  4  2  0  0  0  0
  1  5  2  0  0  0  0
  2  3  1  0  0  0  0
  2  6  2  0  0  0  0
  2  7  2  0  0  0  0
M  END
> <PUBCHEM_COMPOUND_CID>
14813

> <PUBCHEM_COMPOUND_CANONICALIZED>
1

> <PUBCHEM_CACTVS_COMPLEXITY>
123

> <PUBCHEM_CACTVS_HBOND_ACCEPTOR>
5

> <PUBCHEM_CACTVS_HBOND_DONOR>
0

> <PUBCHEM_CACTVS_ROTATABLE_BOND>
0

> <PUBCHEM_CACTVS_SUBSKEYS>
AAADcQAAOAAAAAAAAABAAAAAAAAAAAAAAAAAAAAAAAAAAAAAAAAAAAAAAAAAAAAAAAAAAAAAAAAAAAAAAAAAAAAAAAAAAAAAAAAAAAAAAAAAAAAAAAAAAAAAAAAAAAAAAAAAAAAAAAAAAAAAAAAAAAAAAA==

> <PUBCHEM_IUPAC_OPENEYE_NAME>
(dioxo-lambda5-stibanyl)oxy-dioxo-lambda5-stibane

> <PUBCHEM_IUPAC_CAS_NAME>
dioxostiboranyloxy(dioxo)stiborane

> <PUBCHEM_IUPAC_NAME_MARKUP>
(dioxo-&lambda;<SUP>5</SUP>-stibanyl)oxy-dioxo-&lambda;<SUP>5</SUP>-stibane

> <PUBCHEM_IUPAC_NAME>
(dioxo-lambda5-stibanyl)oxy-dioxo-lambda5-stibane

> <PUBCHEM_IUPAC_SYSTEMATIC_NAME>
[bis(oxidanylidene)-lambda5-stibanyl]oxy-bis(oxidanylidene)-lambda5-stibane

> <PUBCHEM_IUPAC_TRADITIONAL_NAME>
diketostiboranyloxy(diketo)stiborane

> <PUBCHEM_IUPAC_INCHI>
InChI=1S/5O.2Sb

> <PUBCHEM_IUPAC_INCHIKEY>
LJCFOYOSGPHIOO-UHFFFAOYSA-N

> <PUBCHEM_EXACT_MASS>
323.78260

> <PUBCHEM_MOLECULAR_FORMULA>
O5Sb2

> <PUBCHEM_MOLECULAR_WEIGHT>
323.52

> <PUBCHEM_SMILES>
O=[Sb](=O)O[Sb](=O)=O

> <PUBCHEM_CONNECTIVITY_SMILES>
O=[Sb](=O)O[Sb](=O)=O

> <PUBCHEM_CACTVS_TPSA>
77.5

> <PUBCHEM_MONOISOTOPIC_WEIGHT>
321.78220

> <PUBCHEM_TOTAL_CHARGE>
0

> <PUBCHEM_HEAVY_ATOM_COUNT>
7

> <PUBCHEM_ATOM_DEF_STEREO_COUNT>
0

> <PUBCHEM_ATOM_UDEF_STEREO_COUNT>
0

> <PUBCHEM_BOND_DEF_STEREO_COUNT>
0

> <PUBCHEM_BOND_UDEF_STEREO_COUNT>
0

> <PUBCHEM_ISOTOPIC_ATOM_COUNT>
0

> <PUBCHEM_COMPONENT_COUNT>
1

> <PUBCHEM_CACTVS_TAUTO_COUNT>
-1

> <PUBCHEM_COORDINATE_TYPE>
1
5
255

$$$$
