24010
  -OEChem-08152605522D

 17 12  0     0  0  0  0  0  0999 V2000
    7.3461    0.4483    0.0000 Sb  0  1  0  0  0  0  0  0  0  0  0  0
    4.0000   -0.4483    0.0000 Sb  0  1  0  0  0  0  0  0  0  0  0  0
    5.6730    0.0000    0.0000 S   0  0  0  0  0  0  0  0  0  0  0  0
    8.3461    1.4483    0.0000 S   0  0  0  0  0  0  0  0  0  0  0  0
    3.0000   -1.4483    0.0000 S   0  0  0  0  0  0  0  0  0  0  0  0
    6.6390   -0.2588    0.0000 O   0  5  0  0  0  0  0  0  0  0  0  0
    4.7071    0.2588    0.0000 O   0  5  0  0  0  0  0  0  0  0  0  0
    7.3461    1.4483    0.0000 O   0  5  0  0  0  0  0  0  0  0  0  0
    8.3461    0.4483    0.0000 O   0  5  0  0  0  0  0  0  0  0  0  0
    4.0000   -1.4483    0.0000 O   0  5  0  0  0  0  0  0  0  0  0  0
    3.0000   -0.4483    0.0000 O   0  5  0  0  0  0  0  0  0  0  0  0
    5.4142   -0.9659    0.0000 O   0  0  0  0  0  0  0  0  0  0  0  0
    5.9319    0.9659    0.0000 O   0  0  0  0  0  0  0  0  0  0  0  0
    9.3461    1.4483    0.0000 O   0  0  0  0  0  0  0  0  0  0  0  0
    8.3461    2.4483    0.0000 O   0  0  0  0  0  0  0  0  0  0  0  0
    2.0000   -1.4483    0.0000 O   0  0  0  0  0  0  0  0  0  0  0  0
    3.0000   -2.4483    0.0000 O   0  0  0  0  0  0  0  0  0  0  0  0
  3  6  1  0  0  0  0
  3  7  1  0  0  0  0
  3 12  2  0  0  0  0
  3 13  2  0  0  0  0
  4  8  1  0  0  0  0
  4  9  1  0  0  0  0
  4 14  2  0  0  0  0
  4 15  2  0  0  0  0
  5 10  1  0  0  0  0
  5 11  1  0  0  0  0
  5 16  2  0  0  0  0
  5 17  2  0  0  0  0
M  CHG  8   1   3   2   3   6  -1   7  -1   8  -1   9  -1  10  -1  11  -1
M  END
> <PUBCHEM_COMPOUND_CID>
24010

> <PUBCHEM_COMPOUND_CANONICALIZED>
1

> <PUBCHEM_CACTVS_COMPLEXITY>
62.2

> <PUBCHEM_CACTVS_HBOND_ACCEPTOR>
12

> <PUBCHEM_CACTVS_HBOND_DONOR>
0

> <PUBCHEM_CACTVS_ROTATABLE_BOND>
0

> <PUBCHEM_CACTVS_SUBSKEYS>
AAADcQAAPABgAAAAAABAAAAAAAAAAAAAAAAAAAAAAAAAAAAAAAAAAAAAAAAAAAAAAAAAAAAAAAAAAAAAADAAAAAAAAAAAAAAAAAAAAAAAAAAAAAAAAAAAAAAAAAAAAAAAAAAAAAAAAAAAAAAAAAAAAAAAA==

> <PUBCHEM_IUPAC_OPENEYE_NAME>
bis(antimony(3+));trisulfate

> <PUBCHEM_IUPAC_CAS_NAME>
bis(antimony(3+));trisulfate

> <PUBCHEM_IUPAC_NAME_MARKUP>
bis(antimony(3+));trisulfate

> <PUBCHEM_IUPAC_NAME>
bis(antimony(3+));trisulfate

> <PUBCHEM_IUPAC_SYSTEMATIC_NAME>
bis(antimony(3+));trisulfate

> <PUBCHEM_IUPAC_TRADITIONAL_NAME>
bis(antimony(3+));trisulfate

> <PUBCHEM_IUPAC_INCHI>
InChI=1S/3H2O4S.2Sb/c3*1-5(2,3)4;;/h3*(H2,1,2,3,4);;/q;;;2*+3/p-6

> <PUBCHEM_IUPAC_INCHIKEY>
MVMLTMBYNXHXFI-UHFFFAOYSA-H

> <PUBCHEM_EXACT_MASS>
531.66322

> <PUBCHEM_MOLECULAR_FORMULA>
O12S3Sb2

> <PUBCHEM_MOLECULAR_WEIGHT>
531.7

> <PUBCHEM_SMILES>
[O-]S(=O)(=O)[O-].[O-]S(=O)(=O)[O-].[O-]S(=O)(=O)[O-].[Sb+3].[Sb+3]

> <PUBCHEM_CONNECTIVITY_SMILES>
[O-]S(=O)(=O)[O-].[O-]S(=O)(=O)[O-].[O-]S(=O)(=O)[O-].[Sb+3].[Sb+3]

> <PUBCHEM_CACTVS_TPSA>
266

> <PUBCHEM_MONOISOTOPIC_WEIGHT>
529.66281

> <PUBCHEM_TOTAL_CHARGE>
0

> <PUBCHEM_HEAVY_ATOM_COUNT>
17

> <PUBCHEM_ATOM_DEF_STEREO_COUNT>
0

> <PUBCHEM_ATOM_UDEF_STEREO_COUNT>
0

> <PUBCHEM_BOND_DEF_STEREO_COUNT>
0

> <PUBCHEM_BOND_UDEF_STEREO_COUNT>
0

> <PUBCHEM_ISOTOPIC_ATOM_COUNT>
0

> <PUBCHEM_COMPONENT_COUNT>
5

> <PUBCHEM_CACTVS_TAUTO_COUNT>
-1

> <PUBCHEM_COORDINATE_TYPE>
1
5
255

$$$$
