6914521
  -OEChem-08152606542D

  5  0  0     0  0  0  0  0  0999 V2000
    3.6766    0.0298    0.0000 Sb  0  0  0  0  0 15  0  0  0  0  0  0
    3.4178   -0.9361    0.0000 Sb  0  0  0  0  0 15  0  0  0  0  0  0
    2.9400    1.0125    0.0000 Se  0  0  0  0  0 15  0  0  0  0  0  0
    2.0000   -1.0125    0.0000 Se  0  0  0  0  0 15  0  0  0  0  0  0
    4.8168   -0.9273    0.0000 Se  0  0  0  0  0 15  0  0  0  0  0  0
M  END
> <PUBCHEM_COMPOUND_CID>
6914521

> <PUBCHEM_COMPOUND_CANONICALIZED>
1

> <PUBCHEM_CACTVS_COMPLEXITY>
4.9

> <PUBCHEM_CACTVS_HBOND_ACCEPTOR>
0

> <PUBCHEM_CACTVS_HBOND_DONOR>
0

> <PUBCHEM_CACTVS_ROTATABLE_BOND>
0

> <PUBCHEM_CACTVS_SUBSKEYS>
AAADcQAAAAAAAAAAIABAAAAAAABIkAAAAAAAAAAAAAAAAAAAAAAAAAAAAAAAAAAAAAAAAAAAAAAAAAAAAAAAAAAAAAAAAAAAAAAAAAAAAAAAAAAAAAAAAAAAAAAAAAAAAAAAAAAAAAAAAAAAAAAAAAAAAA==

> <PUBCHEM_IUPAC_INCHI>
InChI=1S/2Sb.3Se

> <PUBCHEM_IUPAC_INCHIKEY>
GNZJTRGEKSBAAS-UHFFFAOYSA-N

> <PUBCHEM_EXACT_MASS>
481.55838

> <PUBCHEM_MOLECULAR_FORMULA>
Sb2Se3

> <PUBCHEM_MOLECULAR_WEIGHT>
480.4

> <PUBCHEM_SMILES>
[Se].[Se].[Se].[Sb].[Sb]

> <PUBCHEM_CONNECTIVITY_SMILES>
[Se].[Se].[Se].[Sb].[Sb]

> <PUBCHEM_CACTVS_TPSA>
0

> <PUBCHEM_MONOISOTOPIC_WEIGHT>
481.55719

> <PUBCHEM_TOTAL_CHARGE>
0

> <PUBCHEM_HEAVY_ATOM_COUNT>
5

> <PUBCHEM_ATOM_DEF_STEREO_COUNT>
0

> <PUBCHEM_ATOM_UDEF_STEREO_COUNT>
0

> <PUBCHEM_BOND_DEF_STEREO_COUNT>
0

> <PUBCHEM_BOND_UDEF_STEREO_COUNT>
0

> <PUBCHEM_ISOTOPIC_ATOM_COUNT>
0

> <PUBCHEM_COMPONENT_COUNT>
5

> <PUBCHEM_CACTVS_TAUTO_COUNT>
-1

> <PUBCHEM_NONSTANDARDBOND>
1  3  6
1  4  6
1  5  6
2  3  6
2  4  6
2  5  6

> <PUBCHEM_COORDINATE_TYPE>
1
5
255

$$$$
