6432035
  -OEChem-08152606102D

  2  0  0     0  0  0  0  0  0999 V2000
    0.0000    0.0000    0.0000 Ar  0  0  0  0  0  0  0  0  0  0  0  0
    0.0000    2.5000    0.0000 Ar  0  0  0  0  0  0  0  0  0  0  0  0
M  END
> <PUBCHEM_COMPOUND_CID>
6432035

> <PUBCHEM_COMPOUND_CANONICALIZED>
1

> <PUBCHEM_CACTVS_COMPLEXITY>
0

> <PUBCHEM_CACTVS_HBOND_ACCEPTOR>
0

> <PUBCHEM_CACTVS_HBOND_DONOR>
0

> <PUBCHEM_CACTVS_ROTATABLE_BOND>
0

> <PUBCHEM_CACTVS_SUBSKEYS>
AAADcQAAAAAAAAAAAAAAAAAAAAAAAAAAAAAAAAAAAAAAAAAAAAAAAAAAAAAAAAAAAAAAAAAAAAAAAAAAAAAAAAAAAAAAAAAAAAAAAAAAAAAAAAAAAAAAAAAAAAAAAAAAAAAAAAAAAAAAAAAAAAAAAAAAAA==

> <PUBCHEM_IUPAC_OPENEYE_NAME>
argon

> <PUBCHEM_IUPAC_CAS_NAME>
argon

> <PUBCHEM_IUPAC_NAME_MARKUP>
argon

> <PUBCHEM_IUPAC_NAME>
argon

> <PUBCHEM_IUPAC_SYSTEMATIC_NAME>
argon

> <PUBCHEM_IUPAC_TRADITIONAL_NAME>
argon

> <PUBCHEM_IUPAC_INCHI>
InChI=1S/2Ar

> <PUBCHEM_IUPAC_INCHIKEY>
XMPZLAQHPIBDSO-UHFFFAOYSA-N

> <PUBCHEM_EXACT_MASS>
79.92476624

> <PUBCHEM_MOLECULAR_FORMULA>
Ar2

> <PUBCHEM_MOLECULAR_WEIGHT>
79.8

> <PUBCHEM_SMILES>
[Ar].[Ar]

> <PUBCHEM_CONNECTIVITY_SMILES>
[Ar].[Ar]

> <PUBCHEM_CACTVS_TPSA>
0

> <PUBCHEM_MONOISOTOPIC_WEIGHT>
79.92476624

> <PUBCHEM_TOTAL_CHARGE>
0

> <PUBCHEM_HEAVY_ATOM_COUNT>
2

> <PUBCHEM_ATOM_DEF_STEREO_COUNT>
0

> <PUBCHEM_ATOM_UDEF_STEREO_COUNT>
0

> <PUBCHEM_BOND_DEF_STEREO_COUNT>
0

> <PUBCHEM_BOND_UDEF_STEREO_COUNT>
0

> <PUBCHEM_ISOTOPIC_ATOM_COUNT>
0

> <PUBCHEM_COMPONENT_COUNT>
2

> <PUBCHEM_CACTVS_TAUTO_COUNT>
-1

> <PUBCHEM_COORDINATE_TYPE>
1
5
255

$$$$
