545
  -OEChem-08152602552D

  7  6  0     0  0  0  0  0  0999 V2000
    3.4030    0.4050    0.0000 As  0  0  0  0  0  0  0  0  0  0  0  0
    4.2690    0.9050    0.0000 O   0  0  0  0  0  0  0  0  0  0  0  0
    2.5369    0.9050    0.0000 O   0  0  0  0  0  0  0  0  0  0  0  0
    3.4030   -0.5950    0.0000 O   0  0  0  0  0  0  0  0  0  0  0  0
    4.8059    0.5950    0.0000 H   0  0  0  0  0  0  0  0  0  0  0  0
    2.0000    0.5950    0.0000 H   0  0  0  0  0  0  0  0  0  0  0  0
    2.8660   -0.9050    0.0000 H   0  0  0  0  0  0  0  0  0  0  0  0
  1  2  1  0  0  0  0
  1  3  1  0  0  0  0
  1  4  1  0  0  0  0
  2  5  1  0  0  0  0
  3  6  1  0  0  0  0
  4  7  1  0  0  0  0
M  END
> <PUBCHEM_COMPOUND_CID>
545

> <PUBCHEM_COMPOUND_CANONICALIZED>
1

> <PUBCHEM_CACTVS_COMPLEXITY>
8

> <PUBCHEM_CACTVS_HBOND_ACCEPTOR>
3

> <PUBCHEM_CACTVS_HBOND_DONOR>
3

> <PUBCHEM_CACTVS_ROTATABLE_BOND>
0

> <PUBCHEM_CACTVS_SUBSKEYS>
AAADcQAAMAAAAAAAQAAAAAAAAAAAAAAAAAAAAAAAAAAAAAAAAAAAAAAACAAAAAAAAAAAAAAAAAAAAAAAAAAAAAAAAAAAAAAAAAAAAAAAAAAAAAAAAAAAAAAAAAAAAAAAAAAAAAAAAAAAAAAAAAAAAAAAAA==

> <PUBCHEM_IUPAC_OPENEYE_NAME>
arsorous acid

> <PUBCHEM_IUPAC_CAS_NAME>
arsorous acid

> <PUBCHEM_IUPAC_NAME_MARKUP>
arsorous acid

> <PUBCHEM_IUPAC_NAME>
arsorous acid

> <PUBCHEM_IUPAC_SYSTEMATIC_NAME>
arsorous acid

> <PUBCHEM_IUPAC_TRADITIONAL_NAME>
arsorous acid

> <PUBCHEM_IUPAC_INCHI>
InChI=1S/AsH3O3/c2-1(3)4/h2-4H

> <PUBCHEM_IUPAC_INCHIKEY>
GCPXMJHSNVMWNM-UHFFFAOYSA-N

> <PUBCHEM_EXACT_MASS>
125.929814

> <PUBCHEM_MOLECULAR_FORMULA>
AsH3O3

> <PUBCHEM_MOLECULAR_WEIGHT>
125.944

> <PUBCHEM_SMILES>
O[As](O)O

> <PUBCHEM_CONNECTIVITY_SMILES>
O[As](O)O

> <PUBCHEM_CACTVS_TPSA>
60.7

> <PUBCHEM_MONOISOTOPIC_WEIGHT>
125.929814

> <PUBCHEM_TOTAL_CHARGE>
0

> <PUBCHEM_HEAVY_ATOM_COUNT>
4

> <PUBCHEM_ATOM_DEF_STEREO_COUNT>
0

> <PUBCHEM_ATOM_UDEF_STEREO_COUNT>
0

> <PUBCHEM_BOND_DEF_STEREO_COUNT>
0

> <PUBCHEM_BOND_UDEF_STEREO_COUNT>
0

> <PUBCHEM_ISOTOPIC_ATOM_COUNT>
0

> <PUBCHEM_COMPONENT_COUNT>
1

> <PUBCHEM_CACTVS_TAUTO_COUNT>
-1

> <PUBCHEM_COORDINATE_TYPE>
1
5
255

$$$$
