24575
  -OEChem-08152606132D

  4  3  0     0  0  0  0  0  0999 V2000
    3.7321    0.7500    0.0000 I   0  0  0  0  0  0  0  0  0  0  0  0
    2.0000    0.7500    0.0000 I   0  0  0  0  0  0  0  0  0  0  0  0
    2.8660   -0.7500    0.0000 I   0  0  0  0  0  0  0  0  0  0  0  0
    2.8660    0.2500    0.0000 As  0  0  0  0  0  0  0  0  0  0  0  0
  1  4  1  0  0  0  0
  2  4  1  0  0  0  0
  3  4  1  0  0  0  0
M  END
> <PUBCHEM_COMPOUND_CID>
24575

> <PUBCHEM_COMPOUND_CANONICALIZED>
1

> <PUBCHEM_CACTVS_COMPLEXITY>
8

> <PUBCHEM_CACTVS_HBOND_ACCEPTOR>
0

> <PUBCHEM_CACTVS_HBOND_DONOR>
0

> <PUBCHEM_CACTVS_ROTATABLE_BOND>
0

> <PUBCHEM_CACTVS_SUBSKEYS>
AAADcQAAAAAAAwAAQAAAAAAAAAAAAAAAAAAAAAAAAAAAAAAAAAAAAAAAAAAAAAAAAAAAAAAAAAAAAAAAAAAAAAAAAAAAAAAAAAAAAAAAAAAAAAAAAAAAAAAAAAAAAAAAAAAAAAAAAAAAAAAAAAAAAAAAAA==

> <PUBCHEM_IUPAC_OPENEYE_NAME>
triiodoarsane

> <PUBCHEM_IUPAC_CAS_NAME>
triiodoarsine

> <PUBCHEM_IUPAC_NAME_MARKUP>
triiodoarsane

> <PUBCHEM_IUPAC_NAME>
triiodoarsane

> <PUBCHEM_IUPAC_SYSTEMATIC_NAME>
tris(iodanyl)arsane

> <PUBCHEM_IUPAC_TRADITIONAL_NAME>
triiodoarsine

> <PUBCHEM_IUPAC_INCHI>
InChI=1S/AsI3/c2-1(3)4

> <PUBCHEM_IUPAC_INCHIKEY>
IKIBSPLDJGAHPX-UHFFFAOYSA-N

> <PUBCHEM_EXACT_MASS>
455.6350

> <PUBCHEM_MOLECULAR_FORMULA>
AsI3

> <PUBCHEM_MOLECULAR_WEIGHT>
455.6350

> <PUBCHEM_SMILES>
[As](I)(I)I

> <PUBCHEM_CONNECTIVITY_SMILES>
[As](I)(I)I

> <PUBCHEM_CACTVS_TPSA>
0

> <PUBCHEM_MONOISOTOPIC_WEIGHT>
455.6350

> <PUBCHEM_TOTAL_CHARGE>
0

> <PUBCHEM_HEAVY_ATOM_COUNT>
4

> <PUBCHEM_ATOM_DEF_STEREO_COUNT>
0

> <PUBCHEM_ATOM_UDEF_STEREO_COUNT>
0

> <PUBCHEM_BOND_DEF_STEREO_COUNT>
0

> <PUBCHEM_BOND_UDEF_STEREO_COUNT>
0

> <PUBCHEM_ISOTOPIC_ATOM_COUNT>
0

> <PUBCHEM_COMPONENT_COUNT>
1

> <PUBCHEM_CACTVS_TAUTO_COUNT>
-1

> <PUBCHEM_COORDINATE_TYPE>
1
5
255

$$$$
