22996930
  -OEChem-08152605062D

  6  0  0     0  0  0  0  0  0999 V2000
    0.8660    0.8660    0.0000 As  0  0  0  0  0  0  0  0  0  0  0  0
    1.7321    1.3660    0.0000 Cl  0  5  0  0  0  0  0  0  0  0  0  0
    0.0000    0.3660    0.0000 Cl  0  5  0  0  0  0  0  0  0  0  0  0
    0.3660    1.7321    0.0000 Cl  0  5  0  0  0  0  0  0  0  0  0  0
    1.3660    0.0000    0.0000 Cl  0  5  0  0  0  0  0  0  0  0  0  0
    0.6160    3.7321    0.0000 Cl  0  5  0  0  0  0  0  0  0  0  0  0
M  CHG  6   1   5   2  -1   3  -1   4  -1   5  -1   6  -1
M  END
> <PUBCHEM_COMPOUND_CID>
22996930

> <PUBCHEM_COMPOUND_CANONICALIZED>
1

> <PUBCHEM_CACTVS_COMPLEXITY>
0

> <PUBCHEM_CACTVS_HBOND_ACCEPTOR>
5

> <PUBCHEM_CACTVS_HBOND_DONOR>
0

> <PUBCHEM_CACTVS_ROTATABLE_BOND>
0

> <PUBCHEM_CACTVS_SUBSKEYS>
AAADcQAAAAAHAAAAQAAAAAAAAAAAAAAAAAAAAAAAAAAAAAAAAAAAAAAAAAAAAAAAAAAAAAAAAAAAAAAAAAAAAAAAAAAAAAAAAAAAAAAAAAAAAAAAAAAAAAAAAAAAAAAAAAAAAAAAAAAAAAAAAAAAAAAAAA==

> <PUBCHEM_IUPAC_OPENEYE_NAME>
arsenic(5+) pentachloride

> <PUBCHEM_IUPAC_CAS_NAME>
arsenic(5+) pentachloride

> <PUBCHEM_IUPAC_NAME_MARKUP>
arsenic(5+) pentachloride

> <PUBCHEM_IUPAC_NAME>
arsenic(5+) pentachloride

> <PUBCHEM_IUPAC_SYSTEMATIC_NAME>
arsenic(5+) pentachloride

> <PUBCHEM_IUPAC_TRADITIONAL_NAME>
arsenic(5+) pentachloride

> <PUBCHEM_IUPAC_INCHI>
InChI=1S/As.5ClH/h;5*1H/q+5;;;;;/p-5

> <PUBCHEM_IUPAC_INCHIKEY>
QZVQOIVMEMOBBR-UHFFFAOYSA-I

> <PUBCHEM_EXACT_MASS>
251.762908

> <PUBCHEM_MOLECULAR_FORMULA>
AsCl5

> <PUBCHEM_MOLECULAR_WEIGHT>
252.2

> <PUBCHEM_SMILES>
[Cl-].[Cl-].[Cl-].[Cl-].[Cl-].[As+5]

> <PUBCHEM_CONNECTIVITY_SMILES>
[Cl-].[Cl-].[Cl-].[Cl-].[Cl-].[As+5]

> <PUBCHEM_CACTVS_TPSA>
0

> <PUBCHEM_MONOISOTOPIC_WEIGHT>
249.765858

> <PUBCHEM_TOTAL_CHARGE>
0

> <PUBCHEM_HEAVY_ATOM_COUNT>
6

> <PUBCHEM_ATOM_DEF_STEREO_COUNT>
0

> <PUBCHEM_ATOM_UDEF_STEREO_COUNT>
0

> <PUBCHEM_BOND_DEF_STEREO_COUNT>
0

> <PUBCHEM_BOND_UDEF_STEREO_COUNT>
0

> <PUBCHEM_ISOTOPIC_ATOM_COUNT>
0

> <PUBCHEM_COMPONENT_COUNT>
6

> <PUBCHEM_CACTVS_TAUTO_COUNT>
-1

> <PUBCHEM_COORDINATE_TYPE>
1
5
255

$$$$
