72993917
  -OEChem-08152607392D

  2  1  0     0  0  0  0  0  0999 V2000
    2.0000    0.0000    0.0000 At  0  0  0  0  0  0  0  0  0  0  0  0
    3.0000    0.0000    0.0000 I   0  0  0  0  0  0  0  0  0  0  0  0
  1  2  1  0  0  0  0
M  END
> <PUBCHEM_COMPOUND_CID>
72993917

> <PUBCHEM_COMPOUND_CANONICALIZED>
1

> <PUBCHEM_CACTVS_COMPLEXITY>
2

> <PUBCHEM_CACTVS_HBOND_ACCEPTOR>
0

> <PUBCHEM_CACTVS_HBOND_DONOR>
0

> <PUBCHEM_CACTVS_ROTATABLE_BOND>
0

> <PUBCHEM_CACTVS_SUBSKEYS>
AAADcQAAAAAAAgAAAAAAAAAAAAAAAAAAAAAAAAAAAAAAAAAAAAAAAAAAAAAAAAAAAAAAAAAAAAAAAAAAAAAAAAAAAAAAAAAAAAAAAAAAAAAAAAAAAAAAAAAAAAAAAAAAAAAAAAAAAAAAAAAAAAAAAAAAAA==

> <PUBCHEM_IUPAC_OPENEYE_NAME>
iodoastatine

> <PUBCHEM_IUPAC_CAS_NAME>
iodoastatine

> <PUBCHEM_IUPAC_NAME_MARKUP>
iodoastatine

> <PUBCHEM_IUPAC_NAME>
iodoastatine

> <PUBCHEM_IUPAC_SYSTEMATIC_NAME>
iodanylastatine

> <PUBCHEM_IUPAC_TRADITIONAL_NAME>
iodoastatine

> <PUBCHEM_IUPAC_INCHI>
InChI=1S/AtI/c1-2

> <PUBCHEM_IUPAC_INCHIKEY>
KOUXDMBXGLPQDA-UHFFFAOYSA-N

> <PUBCHEM_EXACT_MASS>
336.89162

> <PUBCHEM_MOLECULAR_FORMULA>
AtI

> <PUBCHEM_MOLECULAR_WEIGHT>
336.8916

> <PUBCHEM_SMILES>
I[At]

> <PUBCHEM_CONNECTIVITY_SMILES>
I[At]

> <PUBCHEM_CACTVS_TPSA>
0

> <PUBCHEM_MONOISOTOPIC_WEIGHT>
336.89162

> <PUBCHEM_TOTAL_CHARGE>
0

> <PUBCHEM_HEAVY_ATOM_COUNT>
2

> <PUBCHEM_ATOM_DEF_STEREO_COUNT>
0

> <PUBCHEM_ATOM_UDEF_STEREO_COUNT>
0

> <PUBCHEM_BOND_DEF_STEREO_COUNT>
0

> <PUBCHEM_BOND_UDEF_STEREO_COUNT>
0

> <PUBCHEM_ISOTOPIC_ATOM_COUNT>
0

> <PUBCHEM_COMPONENT_COUNT>
1

> <PUBCHEM_CACTVS_TAUTO_COUNT>
-1

> <PUBCHEM_COORDINATE_TYPE>
1
5
255

$$$$
