165363845
  -OEChem-08152606012D

  2  1  0     0  0  0  0  0  0999 V2000
    2.0000    0.0000    0.0000 At  0  0  0  0  0  0  0  0  0  0  0  0
    3.0000    0.0000    0.0000 Br  0  0  0  0  0  0  0  0  0  0  0  0
  1  2  1  0  0  0  0
M  END
> <PUBCHEM_COMPOUND_CID>
165363845

> <PUBCHEM_COMPOUND_CANONICALIZED>
1

> <PUBCHEM_CACTVS_COMPLEXITY>
2

> <PUBCHEM_CACTVS_HBOND_ACCEPTOR>
0

> <PUBCHEM_CACTVS_HBOND_DONOR>
0

> <PUBCHEM_CACTVS_ROTATABLE_BOND>
0

> <PUBCHEM_CACTVS_SUBSKEYS>
AAADcQAAAAAAEAAAAAAAAAAAAAAAAAAAAAAAAAAAAAAAAAAAAAAAAAAAAAAAAAAAAAAAAAAAAAAAAAAAAAAAAAAAAAAAAAAAAAAAAAAAAAAAAAAAAAAAAAAAAAAAAAAAAAAAAAAAAAAAAAAAAAAAAAAAAA==

> <PUBCHEM_IUPAC_OPENEYE_NAME>
bromoastatine

> <PUBCHEM_IUPAC_CAS_NAME>
bromoastatine

> <PUBCHEM_IUPAC_NAME_MARKUP>
bromoastatine

> <PUBCHEM_IUPAC_NAME>
bromoastatine

> <PUBCHEM_IUPAC_SYSTEMATIC_NAME>
bromanylastatine

> <PUBCHEM_IUPAC_TRADITIONAL_NAME>
bromoastatine

> <PUBCHEM_IUPAC_INCHI>
InChI=1S/AtBr/c1-2

> <PUBCHEM_IUPAC_INCHIKEY>
QYEMWVBDMLFYBC-UHFFFAOYSA-N

> <PUBCHEM_EXACT_MASS>
288.90548

> <PUBCHEM_MOLECULAR_FORMULA>
AtBr

> <PUBCHEM_MOLECULAR_WEIGHT>
289.89

> <PUBCHEM_SMILES>
Br[At]

> <PUBCHEM_CONNECTIVITY_SMILES>
Br[At]

> <PUBCHEM_CACTVS_TPSA>
0

> <PUBCHEM_MONOISOTOPIC_WEIGHT>
288.90548

> <PUBCHEM_TOTAL_CHARGE>
0

> <PUBCHEM_HEAVY_ATOM_COUNT>
2

> <PUBCHEM_ATOM_DEF_STEREO_COUNT>
0

> <PUBCHEM_ATOM_UDEF_STEREO_COUNT>
0

> <PUBCHEM_BOND_DEF_STEREO_COUNT>
0

> <PUBCHEM_BOND_UDEF_STEREO_COUNT>
0

> <PUBCHEM_ISOTOPIC_ATOM_COUNT>
0

> <PUBCHEM_COMPONENT_COUNT>
1

> <PUBCHEM_CACTVS_TAUTO_COUNT>
-1

> <PUBCHEM_COORDINATE_TYPE>
1
5
255

$$$$
