15251597
  -OEChem-08152607282D

  5  2  0     0  0  0  0  0  0999 V2000
    3.7321   -0.2500    0.0000 Ba  0  2  0  0  0  0  0  0  0  0  0  0
    5.4641   -0.2500    0.0000 Ba  0  0  0  0  0  0  0  0  0  0  0  0
    2.0000   -0.2500    0.0000 Ba  0  0  0  0  0  0  0  0  0  0  0  0
    4.5981    0.2500    0.0000 N   0  5  0  0  0  0  0  0  0  0  0  0
    2.8660    0.2500    0.0000 N   0  5  0  0  0  0  0  0  0  0  0  0
  2  4  2  0  0  0  0
  3  5  2  0  0  0  0
M  CHG  3   1   2   4  -1   5  -1
M  END
> <PUBCHEM_COMPOUND_CID>
15251597

> <PUBCHEM_COMPOUND_CANONICALIZED>
1

> <PUBCHEM_CACTVS_COMPLEXITY>
6.9

> <PUBCHEM_CACTVS_HBOND_ACCEPTOR>
2

> <PUBCHEM_CACTVS_HBOND_DONOR>
0

> <PUBCHEM_CACTVS_ROTATABLE_BOND>
0

> <PUBCHEM_CACTVS_SUBSKEYS>
AAADcQADAAAAAAAAAAAEAAAAAAAAAAAAAAAAAAAAAAAAAAAAAAAAAAAAAAAAAAAAAAAAAAAAAAAAAAAAAAAAAAAAAAAAAAAAAAAAAAAAAAAAAAAAAAAAAAAAAAAAAAAAAAAAAAAAAAAAAAAAAAAAAAAAAA==

> <PUBCHEM_IUPAC_OPENEYE_NAME>
azanidylidenebarium;barium(2+)

> <PUBCHEM_IUPAC_CAS_NAME>
azanidylidenebarium;barium(2+)

> <PUBCHEM_IUPAC_NAME_MARKUP>
azanidylidenebarium;barium(2+)

> <PUBCHEM_IUPAC_NAME>
azanidylidenebarium;barium(2+)

> <PUBCHEM_IUPAC_SYSTEMATIC_NAME>
azanidylidenebarium;barium(2+)

> <PUBCHEM_IUPAC_TRADITIONAL_NAME>
amidylidenebarium;barium(2+)

> <PUBCHEM_IUPAC_INCHI>
InChI=1S/3Ba.2N/q;;+2;2*-1

> <PUBCHEM_IUPAC_INCHIKEY>
LHQHQVFOMOBERP-UHFFFAOYSA-N

> <PUBCHEM_EXACT_MASS>
441.721889

> <PUBCHEM_MOLECULAR_FORMULA>
Ba3N2

> <PUBCHEM_MOLECULAR_WEIGHT>
440.0

> <PUBCHEM_SMILES>
[N-]=[Ba].[N-]=[Ba].[Ba+2]

> <PUBCHEM_CONNECTIVITY_SMILES>
[N-]=[Ba].[N-]=[Ba].[Ba+2]

> <PUBCHEM_CACTVS_TPSA>
2

> <PUBCHEM_MONOISOTOPIC_WEIGHT>
441.721889

> <PUBCHEM_TOTAL_CHARGE>
0

> <PUBCHEM_HEAVY_ATOM_COUNT>
5

> <PUBCHEM_ATOM_DEF_STEREO_COUNT>
0

> <PUBCHEM_ATOM_UDEF_STEREO_COUNT>
0

> <PUBCHEM_BOND_DEF_STEREO_COUNT>
0

> <PUBCHEM_BOND_UDEF_STEREO_COUNT>
0

> <PUBCHEM_ISOTOPIC_ATOM_COUNT>
0

> <PUBCHEM_COMPONENT_COUNT>
3

> <PUBCHEM_CACTVS_TAUTO_COUNT>
-1

> <PUBCHEM_NONSTANDARDBOND>
1  4  7
1  5  7

> <PUBCHEM_COORDINATE_TYPE>
1
5
255

$$$$
