26059
  -OEChem-08152606042D

  9  6  0     0  0  0  0  0  0999 V2000
    4.5981    0.2500    0.0000 Ba  0  2  0  0  0  0  0  0  0  0  0  0
    2.8660    0.2500    0.0000 Cl  0  0  0  0  0  0  0  0  0  0  0  0
    6.3301    0.2500    0.0000 Cl  0  0  0  0  0  0  0  0  0  0  0  0
    3.7321    0.7500    0.0000 O   0  5  0  0  0  0  0  0  0  0  0  0
    5.4641    0.7500    0.0000 O   0  5  0  0  0  0  0  0  0  0  0  0
    2.0000    0.7500    0.0000 O   0  0  0  0  0  0  0  0  0  0  0  0
    2.8660   -0.7500    0.0000 O   0  0  0  0  0  0  0  0  0  0  0  0
    7.1962    0.7500    0.0000 O   0  0  0  0  0  0  0  0  0  0  0  0
    6.3301   -0.7500    0.0000 O   0  0  0  0  0  0  0  0  0  0  0  0
  2  4  1  0  0  0  0
  2  6  2  0  0  0  0
  2  7  2  0  0  0  0
  3  5  1  0  0  0  0
  3  8  2  0  0  0  0
  3  9  2  0  0  0  0
M  CHG  3   1   2   4  -1   5  -1
M  END
> <PUBCHEM_COMPOUND_CID>
26059

> <PUBCHEM_COMPOUND_CANONICALIZED>
1

> <PUBCHEM_CACTVS_COMPLEXITY>
36.5

> <PUBCHEM_CACTVS_HBOND_ACCEPTOR>
6

> <PUBCHEM_CACTVS_HBOND_DONOR>
0

> <PUBCHEM_CACTVS_ROTATABLE_BOND>
0

> <PUBCHEM_CACTVS_SUBSKEYS>
AAADcQAAOAAGAAAAAAAEAAAAAAAAAAAAAAAAAAAAAAAAAAAAAAAAAAAAAAAAAAAAAAAAAAAAAAAAAAAAAAAAAAAAAAAAAAAAAAAAAAAAAAAAAAAAAAAAAAAAAAAAAAAAAAAAAAAAAAAAAAAAAAAAAAAAAA==

> <PUBCHEM_IUPAC_OPENEYE_NAME>
barium(2+) dichlorate

> <PUBCHEM_IUPAC_CAS_NAME>
barium(2+) dichlorate

> <PUBCHEM_IUPAC_NAME_MARKUP>
barium(2+) dichlorate

> <PUBCHEM_IUPAC_NAME>
barium(2+) dichlorate

> <PUBCHEM_IUPAC_SYSTEMATIC_NAME>
barium(2+) dichlorate

> <PUBCHEM_IUPAC_TRADITIONAL_NAME>
barium(2+) dichlorate

> <PUBCHEM_IUPAC_INCHI>
InChI=1S/Ba.2ClHO3/c;2*2-1(3)4/h;2*(H,2,3,4)/q+2;;/p-2

> <PUBCHEM_IUPAC_INCHIKEY>
ISFLYIRWQDJPDR-UHFFFAOYSA-L

> <PUBCHEM_EXACT_MASS>
303.812440

> <PUBCHEM_MOLECULAR_FORMULA>
BaCl2O6

> <PUBCHEM_MOLECULAR_WEIGHT>
304.23

> <PUBCHEM_SMILES>
[O-]Cl(=O)=O.[O-]Cl(=O)=O.[Ba+2]

> <PUBCHEM_CONNECTIVITY_SMILES>
[O-]Cl(=O)=O.[O-]Cl(=O)=O.[Ba+2]

> <PUBCHEM_CACTVS_TPSA>
114

> <PUBCHEM_MONOISOTOPIC_WEIGHT>
303.812440

> <PUBCHEM_TOTAL_CHARGE>
0

> <PUBCHEM_HEAVY_ATOM_COUNT>
9

> <PUBCHEM_ATOM_DEF_STEREO_COUNT>
0

> <PUBCHEM_ATOM_UDEF_STEREO_COUNT>
0

> <PUBCHEM_BOND_DEF_STEREO_COUNT>
0

> <PUBCHEM_BOND_UDEF_STEREO_COUNT>
0

> <PUBCHEM_ISOTOPIC_ATOM_COUNT>
0

> <PUBCHEM_COMPONENT_COUNT>
3

> <PUBCHEM_CACTVS_TAUTO_COUNT>
-1

> <PUBCHEM_COORDINATE_TYPE>
1
5
255

$$$$
