6857597
  -OEChem-08152604422D

  2  0  0     0  0  0  0  0  0999 V2000
    2.0000    0.0000    0.0000 Ba  0  2  0  0  0  0  0  0  0  0  0  0
    3.0000    0.0000    0.0000 S   0  6  0  0  0  0  0  0  0  0  0  0
M  CHG  2   1   2   2  -2
M  END
> <PUBCHEM_COMPOUND_CID>
6857597

> <PUBCHEM_COMPOUND_CANONICALIZED>
1

> <PUBCHEM_CACTVS_COMPLEXITY>
0

> <PUBCHEM_CACTVS_HBOND_ACCEPTOR>
1

> <PUBCHEM_CACTVS_HBOND_DONOR>
0

> <PUBCHEM_CACTVS_ROTATABLE_BOND>
0

> <PUBCHEM_CACTVS_SUBSKEYS>
AAADcQAAAABAAAAAAAAEAAAAAAAAAAAAAAAAAAAAAAAAAAAAAAAAAAAAAAAAAAAAAAAAAAAAAAAAAAAAAAAAAAAAAAAAAAAAAAAAAAAAAAAAAAAAAAAAAAAAAAAAAAAAAAAAAAAAAAAAAAAAAAAAAAAAAA==

> <PUBCHEM_IUPAC_OPENEYE_NAME>
barium(2+) sulfide

> <PUBCHEM_IUPAC_CAS_NAME>
barium(2+) sulfide

> <PUBCHEM_IUPAC_NAME_MARKUP>
barium(2+) sulfide

> <PUBCHEM_IUPAC_NAME>
barium(2+) sulfide

> <PUBCHEM_IUPAC_SYSTEMATIC_NAME>
barium(2+) sulfide

> <PUBCHEM_IUPAC_TRADITIONAL_NAME>
barium(2+) sulfide

> <PUBCHEM_IUPAC_INCHI>
InChI=1S/Ba.S/q+2;-2

> <PUBCHEM_IUPAC_INCHIKEY>
CJDPJFRMHVXWPT-UHFFFAOYSA-N

> <PUBCHEM_EXACT_MASS>
169.877318

> <PUBCHEM_MOLECULAR_FORMULA>
BaS

> <PUBCHEM_MOLECULAR_WEIGHT>
169.39

> <PUBCHEM_SMILES>
[S-2].[Ba+2]

> <PUBCHEM_CONNECTIVITY_SMILES>
[S-2].[Ba+2]

> <PUBCHEM_CACTVS_TPSA>
1

> <PUBCHEM_MONOISOTOPIC_WEIGHT>
169.877318

> <PUBCHEM_TOTAL_CHARGE>
0

> <PUBCHEM_HEAVY_ATOM_COUNT>
2

> <PUBCHEM_ATOM_DEF_STEREO_COUNT>
0

> <PUBCHEM_ATOM_UDEF_STEREO_COUNT>
0

> <PUBCHEM_BOND_DEF_STEREO_COUNT>
0

> <PUBCHEM_BOND_UDEF_STEREO_COUNT>
0

> <PUBCHEM_ISOTOPIC_ATOM_COUNT>
0

> <PUBCHEM_COMPONENT_COUNT>
2

> <PUBCHEM_CACTVS_TAUTO_COUNT>
-1

> <PUBCHEM_COORDINATE_TYPE>
1
5
255

$$$$
