6337927
  -OEChem-08152604272D

  6  2  0     0  0  0  0  0  0999 V2000
    0.2869    0.0000    0.0000 Ba  0  0  0  0  0 15  0  0  0  0  0  0
    3.0739    0.0000    0.0000 Y   0  0  0  0  0  0  0  0  0  0  0  0
    3.0739    2.5000    0.0000 Cu  0  0  0  0  0  0  0  0  0  0  0  0
    0.5369    2.5000    0.0000 O   0  0  0  0  0  0  0  0  0  0  0  0
    1.0739    2.8100    0.0000 H   0  0  0  0  0  0  0  0  0  0  0  0
    0.0000    2.8100    0.0000 H   0  0  0  0  0  0  0  0  0  0  0  0
  4  5  1  0  0  0  0
  4  6  1  0  0  0  0
M  END
> <PUBCHEM_COMPOUND_CID>
6337927

> <PUBCHEM_COMPOUND_CANONICALIZED>
1

> <PUBCHEM_CACTVS_COMPLEXITY>
0

> <PUBCHEM_CACTVS_HBOND_ACCEPTOR>
1

> <PUBCHEM_CACTVS_HBOND_DONOR>
1

> <PUBCHEM_CACTVS_ROTATABLE_BOND>
0

> <PUBCHEM_CACTVS_SUBSKEYS>
AAADcQAAIAAAAAAEAgAEAAAAAAAAAAAAAAAAAAAAAAAAAAAAAAAAAAAACAAAAAAAAAAAAAAAAAAAAAAAAAAAAAAAAAAAAAAAAAAAAAAAAAAAAAAAAAAAAAAAAAAAAAAAAAAAAAAAAAAAAAAAAAAAAAAAAA==

> <PUBCHEM_IUPAC_INCHI>
InChI=1S/Ba.Cu.H2O.Y/h;;1H2;

> <PUBCHEM_IUPAC_INCHIKEY>
DRRYUYDUUMXTQQ-UHFFFAOYSA-N

> <PUBCHEM_EXACT_MASS>
307.751247

> <PUBCHEM_MOLECULAR_FORMULA>
BaCuH2OY

> <PUBCHEM_MOLECULAR_WEIGHT>
307.79

> <PUBCHEM_SMILES>
O.[Cu].[Y].[Ba]

> <PUBCHEM_CONNECTIVITY_SMILES>
O.[Cu].[Y].[Ba]

> <PUBCHEM_CACTVS_TPSA>
1

> <PUBCHEM_MONOISOTOPIC_WEIGHT>
307.751247

> <PUBCHEM_TOTAL_CHARGE>
0

> <PUBCHEM_HEAVY_ATOM_COUNT>
4

> <PUBCHEM_ATOM_DEF_STEREO_COUNT>
0

> <PUBCHEM_ATOM_UDEF_STEREO_COUNT>
0

> <PUBCHEM_BOND_DEF_STEREO_COUNT>
0

> <PUBCHEM_BOND_UDEF_STEREO_COUNT>
0

> <PUBCHEM_ISOTOPIC_ATOM_COUNT>
0

> <PUBCHEM_COMPONENT_COUNT>
4

> <PUBCHEM_CACTVS_TAUTO_COUNT>
-1

> <PUBCHEM_COORDINATE_TYPE>
1
5
255

$$$$
