44147270
  -OEChem-08152606342D

 24  0  0     0  0  0  0  0  0999 V2000
    7.2321    7.5000    0.0000 Ta  0  0  0  0  0  0  0  0  0  0  0  0
    5.5000    7.5000    0.0000 Ta  0  0  0  0  0  0  0  0  0  0  0  0
    4.0000    8.3660    0.0000 Ta  0  0  0  0  0  0  0  0  0  0  0  0
    8.0981    6.0000    0.0000 Ta  0  0  0  0  0  0  0  0  0  0  0  0
    2.5000    7.5000    0.0000 Ba  0  2  0  0  0  0  0  0  0  0  0  0
    4.5000    3.0000    0.0000 Ba  0  2  0  0  0  0  0  0  0  0  0  0
    6.2321    3.0000    0.0000 Ba  0  2  0  0  0  0  0  0  0  0  0  0
    4.5000    0.5000    0.0000 Ba  0  2  0  0  0  0  0  0  0  0  0  0
    6.2321    0.5000    0.0000 Ba  0  2  0  0  0  0  0  0  0  0  0  0
    7.0981    0.0000    0.0000 O   0  6  0  0  0  0  0  0  0  0  0  0
    5.3660    2.5000    0.0000 O   0  6  0  0  0  0  0  0  0  0  0  0
    7.0981    2.5000    0.0000 O   0  6  0  0  0  0  0  0  0  0  0  0
    3.0000    8.3660    0.0000 O   0  6  0  0  0  0  0  0  0  0  0  0
    4.0000    9.3660    0.0000 O   0  6  0  0  0  0  0  0  0  0  0  0
    5.0000    8.3660    0.0000 O   0  6  0  0  0  0  0  0  0  0  0  0
    6.0000    6.6340    0.0000 O   0  6  0  0  0  0  0  0  0  0  0  0
    6.3660    8.0000    0.0000 O   0  6  0  0  0  0  0  0  0  0  0  0
    4.6340    7.0000    0.0000 O   0  6  0  0  0  0  0  0  0  0  0  0
    8.0981    7.0000    0.0000 O   0  6  0  0  0  0  0  0  0  0  0  0
    7.7321    8.3660    0.0000 O   0  6  0  0  0  0  0  0  0  0  0  0
    5.3660    0.0000    0.0000 O   0  6  0  0  0  0  0  0  0  0  0  0
    9.0981    6.0000    0.0000 O   0  6  0  0  0  0  0  0  0  0  0  0
    0.0000    4.4330    0.0000 O   0  6  0  0  0  0  0  0  0  0  0  0
    8.0981    5.0000    0.0000 O   0  6  0  0  0  0  0  0  0  0  0  0
M  CHG  8   1   5   2   5   3   5   4   5   5   2   6   2   7   2   8   2
M  CHG  8   9   2  10  -2  11  -2  12  -2  13  -2  14  -2  15  -2  16  -2
M  CHG  8  17  -2  18  -2  19  -2  20  -2  21  -2  22  -2  23  -2  24  -2
M  END
> <PUBCHEM_COMPOUND_CID>
44147270

> <PUBCHEM_COMPOUND_CANONICALIZED>
1

> <PUBCHEM_CACTVS_COMPLEXITY>
0

> <PUBCHEM_CACTVS_HBOND_ACCEPTOR>
15

> <PUBCHEM_CACTVS_HBOND_DONOR>
0

> <PUBCHEM_CACTVS_ROTATABLE_BOND>
0

> <PUBCHEM_CACTVS_SUBSKEYS>
AAADcQAAPAAAAAAAAAAEgAAAAAAAAAAAAAAAAAAAAAAAAAAAAAAAAAAAAAAAAAAAAAAAAAAAAAAAAAAAAAAAAAAAAAAAAAAAAAAAAAAAAAAAAAAAAAAAAAAAAAAAAAAAAAAAAAAAAAAAAAAAAAAAAAAAAA==

> <PUBCHEM_IUPAC_OPENEYE_NAME>
pentakis(barium(2+));pentadecakis(oxygen(2-));tetrakis(tantalum(5+))

> <PUBCHEM_IUPAC_CAS_NAME>
pentakis(barium(2+));pentadecakis(oxygen(2-));tetrakis(tantalum(5+))

> <PUBCHEM_IUPAC_NAME_MARKUP>
pentakis(barium(2+));pentadecakis(oxygen(2-));tetrakis(tantalum(5+))

> <PUBCHEM_IUPAC_NAME>
pentakis(barium(2+));pentadecakis(oxygen(2-));tetrakis(tantalum(5+))

> <PUBCHEM_IUPAC_SYSTEMATIC_NAME>
pentakis(barium(2+));pentadecakis(oxygen(2-));tetrakis(tantalum(5+))

> <PUBCHEM_IUPAC_TRADITIONAL_NAME>
pentakis(barium(2+));pentadecakis(oxygen(2-));tetrakis(tantalum(5+))

> <PUBCHEM_IUPAC_INCHI>
InChI=1S/5Ba.15O.4Ta/q5*+2;15*-2;4*+5

> <PUBCHEM_IUPAC_INCHIKEY>
BJXXCWDIBHXWOH-UHFFFAOYSA-N

> <PUBCHEM_EXACT_MASS>
1653.24195

> <PUBCHEM_MOLECULAR_FORMULA>
Ba5O15Ta4

> <PUBCHEM_MOLECULAR_WEIGHT>
1650.4

> <PUBCHEM_SMILES>
[O-2].[O-2].[O-2].[O-2].[O-2].[O-2].[O-2].[O-2].[O-2].[O-2].[O-2].[O-2].[O-2].[O-2].[O-2].[Ba+2].[Ba+2].[Ba+2].[Ba+2].[Ba+2].[Ta+5].[Ta+5].[Ta+5].[Ta+5]

> <PUBCHEM_CONNECTIVITY_SMILES>
[O-2].[O-2].[O-2].[O-2].[O-2].[O-2].[O-2].[O-2].[O-2].[O-2].[O-2].[O-2].[O-2].[O-2].[O-2].[Ba+2].[Ba+2].[Ba+2].[Ba+2].[Ba+2].[Ta+5].[Ta+5].[Ta+5].[Ta+5]

> <PUBCHEM_CACTVS_TPSA>
15

> <PUBCHEM_MONOISOTOPIC_WEIGHT>
1653.24195

> <PUBCHEM_TOTAL_CHARGE>
0

> <PUBCHEM_HEAVY_ATOM_COUNT>
24

> <PUBCHEM_ATOM_DEF_STEREO_COUNT>
0

> <PUBCHEM_ATOM_UDEF_STEREO_COUNT>
0

> <PUBCHEM_BOND_DEF_STEREO_COUNT>
0

> <PUBCHEM_BOND_UDEF_STEREO_COUNT>
0

> <PUBCHEM_ISOTOPIC_ATOM_COUNT>
0

> <PUBCHEM_COMPONENT_COUNT>
24

> <PUBCHEM_CACTVS_TAUTO_COUNT>
-1

> <PUBCHEM_COORDINATE_TYPE>
1
5
255

$$$$
