166725
  -OEChem-08152606092D

  5  3  0     0  0  0  0  0  0999 V2000
    2.0000   -0.8536    0.0000 Ba  0  2  0  0  0  0  0  0  0  0  0  0
    3.0000    0.1464    0.0000 Si  0  0  0  0  0  0  0  0  0  0  0  0
    2.0000    0.1464    0.0000 O   0  5  0  0  0  0  0  0  0  0  0  0
    3.0000   -0.8536    0.0000 O   0  5  0  0  0  0  0  0  0  0  0  0
    3.7071    0.8536    0.0000 O   0  0  0  0  0  0  0  0  0  0  0  0
  2  3  1  0  0  0  0
  2  4  1  0  0  0  0
  2  5  2  0  0  0  0
M  CHG  3   1   2   3  -1   4  -1
M  END
> <PUBCHEM_COMPOUND_CID>
166725

> <PUBCHEM_COMPOUND_CANONICALIZED>
1

> <PUBCHEM_CACTVS_COMPLEXITY>
18.8

> <PUBCHEM_CACTVS_HBOND_ACCEPTOR>
3

> <PUBCHEM_CACTVS_HBOND_DONOR>
0

> <PUBCHEM_CACTVS_ROTATABLE_BOND>
0

> <PUBCHEM_CACTVS_SUBSKEYS>
AAADcQAAMAgAAAAAAAAEAAAAAAAAAAAAAAAAAAAAAAAAAAAAAAAAAAAAAEAAAAAAAAAAAAAAAAAAAAAAAAAAAAAAAAAAAAAAAAAAAAAAAAAAAAAAAAAAAAAAAAAAAAAAAAAAAAAAAAAAAAAAAAAAAAAAAA==

> <PUBCHEM_IUPAC_OPENEYE_NAME>
barium(2+);dioxido(oxo)silane

> <PUBCHEM_IUPAC_CAS_NAME>
barium(2+);dioxido(oxo)silane

> <PUBCHEM_IUPAC_NAME_MARKUP>
barium(2+);dioxido(oxo)silane

> <PUBCHEM_IUPAC_NAME>
barium(2+);dioxido(oxo)silane

> <PUBCHEM_IUPAC_SYSTEMATIC_NAME>
barium(2+);bis(oxidanidyl)-oxidanylidene-silane

> <PUBCHEM_IUPAC_TRADITIONAL_NAME>
barium(2+);keto(dioxido)silane

> <PUBCHEM_IUPAC_INCHI>
InChI=1S/Ba.O3Si/c;1-4(2)3/q+2;-2

> <PUBCHEM_IUPAC_INCHIKEY>
HMOQPOVBDRFNIU-UHFFFAOYSA-N

> <PUBCHEM_EXACT_MASS>
213.866917

> <PUBCHEM_MOLECULAR_FORMULA>
BaO3Si

> <PUBCHEM_MOLECULAR_WEIGHT>
213.41

> <PUBCHEM_SMILES>
[O-][Si](=O)[O-].[Ba+2]

> <PUBCHEM_CONNECTIVITY_SMILES>
[O-][Si](=O)[O-].[Ba+2]

> <PUBCHEM_CACTVS_TPSA>
63.2

> <PUBCHEM_MONOISOTOPIC_WEIGHT>
213.866917

> <PUBCHEM_TOTAL_CHARGE>
0

> <PUBCHEM_HEAVY_ATOM_COUNT>
5

> <PUBCHEM_ATOM_DEF_STEREO_COUNT>
0

> <PUBCHEM_ATOM_UDEF_STEREO_COUNT>
0

> <PUBCHEM_BOND_DEF_STEREO_COUNT>
0

> <PUBCHEM_BOND_UDEF_STEREO_COUNT>
0

> <PUBCHEM_ISOTOPIC_ATOM_COUNT>
0

> <PUBCHEM_COMPONENT_COUNT>
2

> <PUBCHEM_CACTVS_TAUTO_COUNT>
-1

> <PUBCHEM_COORDINATE_TYPE>
1
5
255

$$$$
