816
  -OEChem-08152603152D

 70 72  0     1  0  0  0  0  0999 V2000
    5.3100    1.1545    0.0000 O   0  0  0  0  0  0  0  0  0  0  0  0
    7.0421   -1.8455    0.0000 O   0  0  0  0  0  0  0  0  0  0  0  0
    5.3100   -0.8455    0.0000 O   0  0  0  0  0  0  0  0  0  0  0  0
    5.3100    2.8865    0.0000 O   0  0  0  0  0  0  0  0  0  0  0  0
    5.3100   -1.8455    0.0000 O   0  0  0  0  0  0  0  0  0  0  0  0
    7.0421   -3.8455    0.0000 O   0  0  0  0  0  0  0  0  0  0  0  0
    2.3100    2.8865    0.0000 O   0  0  0  0  0  0  0  0  0  0  0  0
    3.3100    4.6186    0.0000 O   0  0  0  0  0  0  0  0  0  0  0  0
    3.5780   -3.8455    0.0000 O   0  0  0  0  0  0  0  0  0  0  0  0
    2.7119   -2.3455    0.0000 O   0  0  0  0  0  0  0  0  0  0  0  0
    7.5421    2.0205    0.0000 N   0  0  0  0  0  0  0  0  0  0  0  0
    8.7741   -0.8455    0.0000 N   0  0  0  0  0  0  0  0  0  0  0  0
    3.3100    1.1545    0.0000 N   0  0  0  0  0  0  0  0  0  0  0  0
    5.3100   -4.8455    0.0000 N   0  0  0  0  0  0  0  0  0  0  0  0
    6.3100    4.6186    0.0000 N   0  0  0  0  0  0  0  0  0  0  0  0
    6.1760    0.6545    0.0000 C   0  0  3  0  0  0  0  0  0  0  0  0
    7.0421   -0.8455    0.0000 C   0  0  3  0  0  0  0  0  0  0  0  0
    6.1760   -0.3455    0.0000 C   0  0  3  0  0  0  0  0  0  0  0  0
    7.0421    1.1545    0.0000 C   0  0  3  0  0  0  0  0  0  0  0  0
    7.9081   -0.3455    0.0000 C   0  0  3  0  0  0  0  0  0  0  0  0
    7.9081    0.6545    0.0000 C   0  0  0  0  0  0  0  0  0  0  0  0
    4.8100    2.0205    0.0000 C   0  0  3  0  0  0  0  0  0  0  0  0
    6.1760   -2.3455    0.0000 C   0  0  3  0  0  0  0  0  0  0  0  0
    3.8100    2.0205    0.0000 C   0  0  3  0  0  0  0  0  0  0  0  0
    6.1760   -3.3455    0.0000 C   0  0  3  0  0  0  0  0  0  0  0  0
    3.3100    2.8865    0.0000 C   0  0  3  0  0  0  0  0  0  0  0  0
    5.3100   -3.8455    0.0000 C   0  0  3  0  0  0  0  0  0  0  0  0
    3.8100    3.7526    0.0000 C   0  0  3  0  0  0  0  0  0  0  0  0
    4.8100    3.7526    0.0000 C   0  0  3  0  0  0  0  0  0  0  0  0
    4.4440   -3.3455    0.0000 C   0  0  3  0  0  0  0  0  0  0  0  0
    4.4440   -2.3455    0.0000 C   0  0  3  0  0  0  0  0  0  0  0  0
    5.3100    4.6186    0.0000 C   0  0  0  0  0  0  0  0  0  0  0  0
    3.5780   -1.8455    0.0000 C   0  0  0  0  0  0  0  0  0  0  0  0
    6.1760    1.2745    0.0000 H   0  0  0  0  0  0  0  0  0  0  0  0
    7.5790   -1.1555    0.0000 H   0  0  0  0  0  0  0  0  0  0  0  0
    6.1760   -0.9655    0.0000 H   0  0  0  0  0  0  0  0  0  0  0  0
    6.6036    1.5929    0.0000 H   0  0  0  0  0  0  0  0  0  0  0  0
    8.4450   -0.0355    0.0000 H   0  0  0  0  0  0  0  0  0  0  0  0
    8.5187    0.5468    0.0000 H   0  0  0  0  0  0  0  0  0  0  0  0
    8.1201    1.2371    0.0000 H   0  0  0  0  0  0  0  0  0  0  0  0
    4.5000    1.4836    0.0000 H   0  0  0  0  0  0  0  0  0  0  0  0
    6.1760   -1.7255    0.0000 H   0  0  0  0  0  0  0  0  0  0  0  0
    3.1900    2.0205    0.0000 H   0  0  0  0  0  0  0  0  0  0  0  0
    6.1760   -3.9655    0.0000 H   0  0  0  0  0  0  0  0  0  0  0  0
    3.0000    3.4235    0.0000 H   0  0  0  0  0  0  0  0  0  0  0  0
    4.7731   -4.1555    0.0000 H   0  0  0  0  0  0  0  0  0  0  0  0
    4.1200    4.2895    0.0000 H   0  0  0  0  0  0  0  0  0  0  0  0
    5.4300    3.7526    0.0000 H   0  0  0  0  0  0  0  0  0  0  0  0
    3.9070   -3.0355    0.0000 H   0  0  0  0  0  0  0  0  0  0  0  0
    4.4440   -1.7255    0.0000 H   0  0  0  0  0  0  0  0  0  0  0  0
    8.1621    2.0205    0.0000 H   0  0  0  0  0  0  0  0  0  0  0  0
    7.2321    2.5574    0.0000 H   0  0  0  0  0  0  0  0  0  0  0  0
    9.3110   -0.5355    0.0000 H   0  0  0  0  0  0  0  0  0  0  0  0
    8.7741   -1.4655    0.0000 H   0  0  0  0  0  0  0  0  0  0  0  0
    4.7731   -0.5355    0.0000 H   0  0  0  0  0  0  0  0  0  0  0  0
    5.4177    5.2292    0.0000 H   0  0  0  0  0  0  0  0  0  0  0  0
    4.7274    4.8306    0.0000 H   0  0  0  0  0  0  0  0  0  0  0  0
    2.6900    1.1545    0.0000 H   0  0  0  0  0  0  0  0  0  0  0  0
    3.6200    0.6175    0.0000 H   0  0  0  0  0  0  0  0  0  0  0  0
    3.9765   -1.3706    0.0000 H   0  0  0  0  0  0  0  0  0  0  0  0
    3.1794   -1.3706    0.0000 H   0  0  0  0  0  0  0  0  0  0  0  0
    4.7731   -5.1555    0.0000 H   0  0  0  0  0  0  0  0  0  0  0  0
    5.8469   -5.1555    0.0000 H   0  0  0  0  0  0  0  0  0  0  0  0
    7.5790   -3.5355    0.0000 H   0  0  0  0  0  0  0  0  0  0  0  0
    2.0000    3.4235    0.0000 H   0  0  0  0  0  0  0  0  0  0  0  0
    3.6200    5.1555    0.0000 H   0  0  0  0  0  0  0  0  0  0  0  0
    3.5780   -4.4655    0.0000 H   0  0  0  0  0  0  0  0  0  0  0  0
    6.6200    5.1555    0.0000 H   0  0  0  0  0  0  0  0  0  0  0  0
    6.6200    4.0817    0.0000 H   0  0  0  0  0  0  0  0  0  0  0  0
    2.1750   -2.0355    0.0000 H   0  0  0  0  0  0  0  0  0  0  0  0
  1 16  1  0  0  0  0
  1 22  1  0  0  0  0
  2 17  1  0  0  0  0
  2 23  1  0  0  0  0
  3 18  1  0  0  0  0
  3 55  1  0  0  0  0
  4 22  1  0  0  0  0
  4 29  1  0  0  0  0
  5 23  1  0  0  0  0
  5 31  1  0  0  0  0
  6 25  1  0  0  0  0
  6 64  1  0  0  0  0
  7 26  1  0  0  0  0
  7 65  1  0  0  0  0
  8 28  1  0  0  0  0
  8 66  1  0  0  0  0
  9 30  1  0  0  0  0
  9 67  1  0  0  0  0
 10 33  1  0  0  0  0
 10 70  1  0  0  0  0
 11 19  1  0  0  0  0
 11 51  1  0  0  0  0
 11 52  1  0  0  0  0
 12 20  1  0  0  0  0
 12 53  1  0  0  0  0
 12 54  1  0  0  0  0
 13 24  1  0  0  0  0
 13 58  1  0  0  0  0
 13 59  1  0  0  0  0
 14 27  1  0  0  0  0
 14 62  1  0  0  0  0
 14 63  1  0  0  0  0
 15 32  1  0  0  0  0
 15 68  1  0  0  0  0
 15 69  1  0  0  0  0
 16 18  1  0  0  0  0
 16 19  1  0  0  0  0
 16 34  1  0  0  0  0
 17 18  1  0  0  0  0
 17 20  1  0  0  0  0
 17 35  1  0  0  0  0
 18 36  1  0  0  0  0
 19 21  1  0  0  0  0
 19 37  1  0  0  0  0
 20 21  1  0  0  0  0
 20 38  1  0  0  0  0
 21 39  1  0  0  0  0
 21 40  1  0  0  0  0
 22 24  1  0  0  0  0
 22 41  1  0  0  0  0
 23 25  1  0  0  0  0
 23 42  1  0  0  0  0
 24 26  1  0  0  0  0
 24 43  1  0  0  0  0
 25 27  1  0  0  0  0
 25 44  1  0  0  0  0
 26 28  1  0  0  0  0
 26 45  1  0  0  0  0
 27 30  1  0  0  0  0
 27 46  1  0  0  0  0
 28 29  1  0  0  0  0
 28 47  1  0  0  0  0
 29 32  1  0  0  0  0
 29 48  1  0  0  0  0
 30 31  1  0  0  0  0
 30 49  1  0  0  0  0
 31 33  1  0  0  0  0
 31 50  1  0  0  0  0
 32 56  1  0  0  0  0
 32 57  1  0  0  0  0
 33 60  1  0  0  0  0
 33 61  1  0  0  0  0
M  END
> <PUBCHEM_COMPOUND_CID>
816

> <PUBCHEM_COMPOUND_CANONICALIZED>
1

> <PUBCHEM_CACTVS_COMPLEXITY>
639

> <PUBCHEM_CACTVS_HBOND_ACCEPTOR>
15

> <PUBCHEM_CACTVS_HBOND_DONOR>
11

> <PUBCHEM_CACTVS_ROTATABLE_BOND>
6

> <PUBCHEM_CACTVS_SUBSKEYS>
AAADcfB7vAAAAAAAAAAAAAAAAAAAAAAAAAA0SIAAAAAAAAAAAAAAHgAQCAAACDzxgAcACABABgAAAAAAAAAAAAAAAAAAAIAAAAATEAIAwAAjQAAHEAAHAAHwcA0AAAAAAAAAAAAAgAAUCACgAAAAAAAAAA==

> <PUBCHEM_IUPAC_OPENEYE_NAME>
5-amino-2-(aminomethyl)-6-[4,6-diamino-3-[4-amino-3,5-dihydroxy-6-(hydroxymethyl)tetrahydropyran-2-yl]oxy-2-hydroxy-cyclohexoxy]tetrahydropyran-3,4-diol

> <PUBCHEM_IUPAC_CAS_NAME>
5-amino-2-(aminomethyl)-6-[4,6-diamino-3-[[4-amino-3,5-dihydroxy-6-(hydroxymethyl)-2-oxanyl]oxy]-2-hydroxycyclohexyl]oxyoxane-3,4-diol

> <PUBCHEM_IUPAC_NAME_MARKUP>
5-amino-2-(aminomethyl)-6-[4,6-diamino-3-[4-amino-3,5-dihydroxy-6-(hydroxymethyl)oxan-2-yl]oxy-2-hydroxycyclohexyl]oxyoxane-3,4-diol

> <PUBCHEM_IUPAC_NAME>
5-amino-2-(aminomethyl)-6-[4,6-diamino-3-[4-amino-3,5-dihydroxy-6-(hydroxymethyl)oxan-2-yl]oxy-2-hydroxycyclohexyl]oxyoxane-3,4-diol

> <PUBCHEM_IUPAC_SYSTEMATIC_NAME>
2-(aminomethyl)-5-azanyl-6-[4,6-bis(azanyl)-3-[4-azanyl-6-(hydroxymethyl)-3,5-bis(oxidanyl)oxan-2-yl]oxy-2-oxidanyl-cyclohexyl]oxy-oxane-3,4-diol

> <PUBCHEM_IUPAC_TRADITIONAL_NAME>
5-amino-2-(aminomethyl)-6-[4,6-diamino-3-(4-amino-3,5-dihydroxy-6-methylol-tetrahydropyran-2-yl)oxy-2-hydroxy-cyclohexoxy]tetrahydropyran-3,4-diol

> <PUBCHEM_IUPAC_INCHI>
InChI=1S/C18H37N5O10/c19-2-6-11(26)12(27)9(23)17(30-6)32-15-4(20)1-5(21)16(14(15)29)33-18-13(28)8(22)10(25)7(3-24)31-18/h4-18,24-29H,1-3,19-23H2

> <PUBCHEM_IUPAC_INCHIKEY>
SKKLOUVUUNMCJE-UHFFFAOYSA-N

> <PUBCHEM_XLOGP3_AA>
-7.2

> <PUBCHEM_EXACT_MASS>
483.25404239

> <PUBCHEM_MOLECULAR_FORMULA>
C18H37N5O10

> <PUBCHEM_MOLECULAR_WEIGHT>
483.5

> <PUBCHEM_SMILES>
C1C(C(C(C(C1N)OC2C(C(C(C(O2)CO)O)N)O)O)OC3C(C(C(C(O3)CN)O)O)N)N

> <PUBCHEM_CONNECTIVITY_SMILES>
C1C(C(C(C(C1N)OC2C(C(C(C(O2)CO)O)N)O)O)OC3C(C(C(C(O3)CN)O)O)N)N

> <PUBCHEM_CACTVS_TPSA>
288

> <PUBCHEM_MONOISOTOPIC_WEIGHT>
483.25404239

> <PUBCHEM_TOTAL_CHARGE>
0

> <PUBCHEM_HEAVY_ATOM_COUNT>
33

> <PUBCHEM_ATOM_DEF_STEREO_COUNT>
0

> <PUBCHEM_ATOM_UDEF_STEREO_COUNT>
15

> <PUBCHEM_BOND_DEF_STEREO_COUNT>
0

> <PUBCHEM_BOND_UDEF_STEREO_COUNT>
0

> <PUBCHEM_ISOTOPIC_ATOM_COUNT>
0

> <PUBCHEM_COMPONENT_COUNT>
1

> <PUBCHEM_CACTVS_TAUTO_COUNT>
-1

> <PUBCHEM_COORDINATE_TYPE>
1
5
255

> <PUBCHEM_BONDANNOTATIONS>
16  1  3
22  1  3
19  11  3
20  12  3
24  13  3
27  14  3
17  2  3
23  2  3
29  32  3
18  3  3
31  33  3
25  6  3
26  7  3
28  8  3
30  9  3

$$$$
