159361648
  -OEChem-08152607222D

  5  0  0     0  0  0  0  0  0999 V2000
    2.5000    5.0000    0.0000 Bk  0  0  0  0  0  0  0  0  0  0  0  0
    5.0000    2.5000    0.0000 Bk  0  0  0  0  0  0  0  0  0  0  0  0
    0.0000    2.5000    0.0000 O   0  6  0  0  0  0  0  0  0  0  0  0
    2.5000    0.0000    0.0000 O   0  6  0  0  0  0  0  0  0  0  0  0
    2.5000    2.5000    0.0000 O   0  6  0  0  0  0  0  0  0  0  0  0
M  CHG  3   3  -2   4  -2   5  -2
M  END
> <PUBCHEM_COMPOUND_CID>
159361648

> <PUBCHEM_COMPOUND_CANONICALIZED>
1

> <PUBCHEM_CACTVS_COMPLEXITY>
0

> <PUBCHEM_CACTVS_HBOND_ACCEPTOR>
3

> <PUBCHEM_CACTVS_HBOND_DONOR>
0

> <PUBCHEM_CACTVS_ROTATABLE_BOND>
0

> <PUBCHEM_CACTVS_SUBSKEYS>
AAADcQAAMAAAAAAAAAAAAAAAAAAAAAAAAAAAAAAAAAAAAAAAAAAAAAAAAAAAAAAAAAAAAAAAAAAAAAAAAAAAAAAAAAAAAAAAAAAAAAAAAAAAAAAAAAAAAAAAAAAAAAAAAAAAAAAAAAAAAAAAAAAAAAAAAA==

> <PUBCHEM_IUPAC_OPENEYE_NAME>
berkelium;tris(oxygen(2-))

> <PUBCHEM_IUPAC_CAS_NAME>
berkelium;tris(oxygen(2-))

> <PUBCHEM_IUPAC_NAME_MARKUP>
berkelium;tris(oxygen(2-))

> <PUBCHEM_IUPAC_NAME>
berkelium;tris(oxygen(2-))

> <PUBCHEM_IUPAC_SYSTEMATIC_NAME>
berkelium;tris(oxygen(2-))

> <PUBCHEM_IUPAC_TRADITIONAL_NAME>
berkelium;tris(oxygen(2-))

> <PUBCHEM_IUPAC_INCHI>
InChI=1S/2Bk.3O/q;;3*-2

> <PUBCHEM_IUPAC_INCHIKEY>
ZKKBAEOZFJVFSW-UHFFFAOYSA-N

> <PUBCHEM_EXACT_MASS>
542.1254

> <PUBCHEM_MOLECULAR_FORMULA>
Bk2O3-6

> <PUBCHEM_MOLECULAR_WEIGHT>
542.139

> <PUBCHEM_SMILES>
[O-2].[O-2].[O-2].[Bk].[Bk]

> <PUBCHEM_CONNECTIVITY_SMILES>
[O-2].[O-2].[O-2].[Bk].[Bk]

> <PUBCHEM_CACTVS_TPSA>
3

> <PUBCHEM_MONOISOTOPIC_WEIGHT>
542.1254

> <PUBCHEM_TOTAL_CHARGE>
-6

> <PUBCHEM_HEAVY_ATOM_COUNT>
5

> <PUBCHEM_ATOM_DEF_STEREO_COUNT>
0

> <PUBCHEM_ATOM_UDEF_STEREO_COUNT>
0

> <PUBCHEM_BOND_DEF_STEREO_COUNT>
0

> <PUBCHEM_BOND_UDEF_STEREO_COUNT>
0

> <PUBCHEM_ISOTOPIC_ATOM_COUNT>
0

> <PUBCHEM_COMPONENT_COUNT>
5

> <PUBCHEM_CACTVS_TAUTO_COUNT>
-1

> <PUBCHEM_COORDINATE_TYPE>
1
5
255

$$$$
