164189044
  -OEChem-08152605262D

  4  2  0     0  0  0  0  0  0999 V2000
    0.6160    0.0000    0.0000 Bk  0  0  0  0  0  0  0  0  0  0  0  0
    0.8660    2.5000    0.0000 I   0  5  0  0  0  0  0  0  0  0  0  0
    1.7320    3.0000    0.0000 I   0  0  0  0  0  0  0  0  0  0  0  0
    0.0000    3.0000    0.0000 I   0  0  0  0  0  0  0  0  0  0  0  0
  2  3  1  0  0  0  0
  2  4  1  0  0  0  0
M  CHG  1   2  -1
M  END
> <PUBCHEM_COMPOUND_CID>
164189044

> <PUBCHEM_COMPOUND_CANONICALIZED>
1

> <PUBCHEM_CACTVS_COMPLEXITY>
0

> <PUBCHEM_CACTVS_HBOND_ACCEPTOR>
1

> <PUBCHEM_CACTVS_HBOND_DONOR>
0

> <PUBCHEM_CACTVS_ROTATABLE_BOND>
0

> <PUBCHEM_CACTVS_SUBSKEYS>
AAADcQAAAAAAAwAAAAAAAAAAAAAAAAAAAAAAAAAAAAAAAAAAAAAAAAAAAAAAAAAAAAAAAAAAAAAAAAAAAAAAAAAAAAAAAAAAAAAAAAAAAAAAAAAAAAAAAAAAAAAAAAAAAAAAAAAAAAAAAAAAAAAAAAAAAA==

> <PUBCHEM_IUPAC_OPENEYE_NAME>
berkelium triiodide

> <PUBCHEM_IUPAC_CAS_NAME>
berkelium triiodide

> <PUBCHEM_IUPAC_NAME_MARKUP>
berkelium triiodide

> <PUBCHEM_IUPAC_NAME>
berkelium triiodide

> <PUBCHEM_IUPAC_SYSTEMATIC_NAME>
berkelium triiodide

> <PUBCHEM_IUPAC_TRADITIONAL_NAME>
berkelium triiodide

> <PUBCHEM_IUPAC_INCHI>
InChI=1S/Bk.I3/c;1-3-2/q;-1

> <PUBCHEM_IUPAC_INCHIKEY>
ZVLAXDAWDBGFRK-UHFFFAOYSA-N

> <PUBCHEM_EXACT_MASS>
627.7837

> <PUBCHEM_MOLECULAR_FORMULA>
BkI3-

> <PUBCHEM_MOLECULAR_WEIGHT>
627.7837

> <PUBCHEM_SMILES>
I[I-]I.[Bk]

> <PUBCHEM_CONNECTIVITY_SMILES>
I[I-]I.[Bk]

> <PUBCHEM_CACTVS_TPSA>
0

> <PUBCHEM_MONOISOTOPIC_WEIGHT>
627.7837

> <PUBCHEM_TOTAL_CHARGE>
-1

> <PUBCHEM_HEAVY_ATOM_COUNT>
4

> <PUBCHEM_ATOM_DEF_STEREO_COUNT>
0

> <PUBCHEM_ATOM_UDEF_STEREO_COUNT>
0

> <PUBCHEM_BOND_DEF_STEREO_COUNT>
0

> <PUBCHEM_BOND_UDEF_STEREO_COUNT>
0

> <PUBCHEM_ISOTOPIC_ATOM_COUNT>
0

> <PUBCHEM_COMPONENT_COUNT>
2

> <PUBCHEM_CACTVS_TAUTO_COUNT>
-1

> <PUBCHEM_COORDINATE_TYPE>
1
5
255

$$$$
