15301188
  -OEChem-08152606332D

  5  2  0     0  0  0  0  0  0999 V2000
    5.4641    0.5000    0.0000 N   0  0  0  0  0  0  0  0  0  0  0  0
    2.0000    0.5000    0.0000 N   0  0  0  0  0  0  0  0  0  0  0  0
    4.5981    0.0000    0.0000 C   0  5  0  0  0  0  0  0  0  0  0  0
    2.8660   -0.0000    0.0000 C   0  5  0  0  0  0  0  0  0  0  0  0
    3.7320   -0.5000    0.0000 Be  0  2  0  0  0  0  0  0  0  0  0  0
  1  3  3  0  0  0  0
  2  4  3  0  0  0  0
M  CHG  3   3  -1   4  -1   5   2
M  END
> <PUBCHEM_COMPOUND_CID>
15301188

> <PUBCHEM_COMPOUND_CANONICALIZED>
1

> <PUBCHEM_CACTVS_COMPLEXITY>
10

> <PUBCHEM_CACTVS_HBOND_ACCEPTOR>
4

> <PUBCHEM_CACTVS_HBOND_DONOR>
0

> <PUBCHEM_CACTVS_ROTATABLE_BOND>
0

> <PUBCHEM_CACTVS_SUBSKEYS>
AAADcQBDAAAAAEAAAAAAAAAAAAAAAAAAAAAAAAAAAAAAAAAAAAAABAAAAAAAAAAAAAAAAAAAAAAQAAAAAAAAAAAAAAAAAAAAAAAAAAAAAAAAAAAAAAAAAAAAAAAAAAAAAAAAAAAAAAAAAAAAAAAAAAAAAA==

> <PUBCHEM_IUPAC_OPENEYE_NAME>
beryllium dicyanide

> <PUBCHEM_IUPAC_CAS_NAME>
beryllium dicyanide

> <PUBCHEM_IUPAC_NAME_MARKUP>
beryllium dicyanide

> <PUBCHEM_IUPAC_NAME>
beryllium dicyanide

> <PUBCHEM_IUPAC_SYSTEMATIC_NAME>
beryllium dicyanide

> <PUBCHEM_IUPAC_TRADITIONAL_NAME>
beryllium dicyanide

> <PUBCHEM_IUPAC_INCHI>
InChI=1S/2CN.Be/c2*1-2;/q2*-1;+2

> <PUBCHEM_IUPAC_INCHIKEY>
AEWSGYZUFGCLKS-UHFFFAOYSA-N

> <PUBCHEM_EXACT_MASS>
61.0183311

> <PUBCHEM_MOLECULAR_FORMULA>
C2BeN2

> <PUBCHEM_MOLECULAR_WEIGHT>
61.05

> <PUBCHEM_SMILES>
[Be+2].[C-]#N.[C-]#N

> <PUBCHEM_CONNECTIVITY_SMILES>
[Be+2].[C-]#N.[C-]#N

> <PUBCHEM_CACTVS_TPSA>
47.6

> <PUBCHEM_MONOISOTOPIC_WEIGHT>
61.0183311

> <PUBCHEM_TOTAL_CHARGE>
0

> <PUBCHEM_HEAVY_ATOM_COUNT>
5

> <PUBCHEM_ATOM_DEF_STEREO_COUNT>
0

> <PUBCHEM_ATOM_UDEF_STEREO_COUNT>
0

> <PUBCHEM_BOND_DEF_STEREO_COUNT>
0

> <PUBCHEM_BOND_UDEF_STEREO_COUNT>
0

> <PUBCHEM_ISOTOPIC_ATOM_COUNT>
0

> <PUBCHEM_COMPONENT_COUNT>
3

> <PUBCHEM_CACTVS_TAUTO_COUNT>
-1

> <PUBCHEM_COORDINATE_TYPE>
1
5
255

$$$$
