26126
  -OEChem-08152607162D

  9  6  0     0  0  0  0  0  0999 V2000
    2.0000    0.7500    0.0000 O   0  5  0  0  0  0  0  0  0  0  0  0
    3.7321    0.7500    0.0000 O   0  5  0  0  0  0  0  0  0  0  0  0
    7.1962    0.7500    0.0000 O   0  5  0  0  0  0  0  0  0  0  0  0
    5.4641    0.7500    0.0000 O   0  5  0  0  0  0  0  0  0  0  0  0
    2.8660   -0.7500    0.0000 O   0  0  0  0  0  0  0  0  0  0  0  0
    6.3301   -0.7500    0.0000 O   0  0  0  0  0  0  0  0  0  0  0  0
    2.8660    0.2500    0.0000 N   0  3  0  0  0  0  0  0  0  0  0  0
    6.3301    0.2500    0.0000 N   0  3  0  0  0  0  0  0  0  0  0  0
    4.5981    0.2500    0.0000 Be  0  2  0  0  0  0  0  0  0  0  0  0
  1  7  1  0  0  0  0
  2  7  1  0  0  0  0
  3  8  1  0  0  0  0
  4  8  1  0  0  0  0
  5  7  2  0  0  0  0
  6  8  2  0  0  0  0
M  CHG  7   1  -1   2  -1   3  -1   4  -1   7   1   8   1   9   2
M  END
> <PUBCHEM_COMPOUND_CID>
26126

> <PUBCHEM_COMPOUND_CANONICALIZED>
1

> <PUBCHEM_CACTVS_COMPLEXITY>
18.8

> <PUBCHEM_CACTVS_HBOND_ACCEPTOR>
6

> <PUBCHEM_CACTVS_HBOND_DONOR>
0

> <PUBCHEM_CACTVS_ROTATABLE_BOND>
0

> <PUBCHEM_CACTVS_SUBSKEYS>
AAADcQADOAAAAEAAAAAAAAAAAAAAAAAAAAAAAAAAAAAAAAAAAAAAAAAEAAAAAAAAAAAAAAAAQAABAAAAAQAAAAAAAAAAAAAAAAAAAAAAAAAAAAAAAAAAAAAAAAAAAAAAAAAAAAAAAAAAAAAAAAAAAAAAAA==

> <PUBCHEM_IUPAC_OPENEYE_NAME>
beryllium dinitrate

> <PUBCHEM_IUPAC_CAS_NAME>
beryllium dinitrate

> <PUBCHEM_IUPAC_NAME_MARKUP>
beryllium dinitrate

> <PUBCHEM_IUPAC_NAME>
beryllium dinitrate

> <PUBCHEM_IUPAC_SYSTEMATIC_NAME>
beryllium dinitrate

> <PUBCHEM_IUPAC_TRADITIONAL_NAME>
beryllium dinitrate

> <PUBCHEM_IUPAC_INCHI>
InChI=1S/Be.2NO3/c;2*2-1(3)4/q+2;2*-1

> <PUBCHEM_IUPAC_INCHIKEY>
RFVVBBUVWAIIBT-UHFFFAOYSA-N

> <PUBCHEM_EXACT_MASS>
132.9878188

> <PUBCHEM_MOLECULAR_FORMULA>
BeN2O6

> <PUBCHEM_MOLECULAR_WEIGHT>
133.02

> <PUBCHEM_SMILES>
[Be+2].[N+](=O)([O-])[O-].[N+](=O)([O-])[O-]

> <PUBCHEM_CONNECTIVITY_SMILES>
[Be+2].[N+](=O)([O-])[O-].[N+](=O)([O-])[O-]

> <PUBCHEM_CACTVS_TPSA>
126

> <PUBCHEM_MONOISOTOPIC_WEIGHT>
132.9878188

> <PUBCHEM_TOTAL_CHARGE>
0

> <PUBCHEM_HEAVY_ATOM_COUNT>
9

> <PUBCHEM_ATOM_DEF_STEREO_COUNT>
0

> <PUBCHEM_ATOM_UDEF_STEREO_COUNT>
0

> <PUBCHEM_BOND_DEF_STEREO_COUNT>
0

> <PUBCHEM_BOND_UDEF_STEREO_COUNT>
0

> <PUBCHEM_ISOTOPIC_ATOM_COUNT>
0

> <PUBCHEM_COMPONENT_COUNT>
3

> <PUBCHEM_CACTVS_TAUTO_COUNT>
-1

> <PUBCHEM_COORDINATE_TYPE>
1
5
255

$$$$
