6336993
  -OEChem-08152604222D

  3  0  0     0  0  0  0  0  0999 V2000
    3.7321    0.2500    0.0000 B   0  5  0  0  0 15  0  0  0  0  0  0
    2.0000    0.2500    0.0000 B   0  5  0  0  0 15  0  0  0  0  0  0
    2.8660   -0.2500    0.0000 Be  0  2  0  0  0  0  0  0  0  0  0  0
M  CHG  3   1  -1   2  -1   3   2
M  END
> <PUBCHEM_COMPOUND_CID>
6336993

> <PUBCHEM_COMPOUND_CANONICALIZED>
1

> <PUBCHEM_CACTVS_COMPLEXITY>
0

> <PUBCHEM_CACTVS_HBOND_ACCEPTOR>
2

> <PUBCHEM_CACTVS_HBOND_DONOR>
0

> <PUBCHEM_CACTVS_ROTATABLE_BOND>
0

> <PUBCHEM_CACTVS_SUBSKEYS>
AAADcQMAAAAAAEAAAAAAAAAAAAAAAAAAAAAAAAAAAAAAAAAAAAAAAAAAAAAAAAAAAAAAAAAAAAAAAAAAAAAAAAAAAAAAAAAAAAAAAAAAAAAAAAAAAAAAAAAAAAAAAAAAAAAAAAAAAAAAAAAAAAAAAAAAAA==

> <PUBCHEM_IUPAC_INCHI>
InChI=1S/2B.Be/q2*-1;+2

> <PUBCHEM_IUPAC_INCHIKEY>
RZYDOHLUQTZCQN-UHFFFAOYSA-N

> <PUBCHEM_EXACT_MASS>
31.0307934

> <PUBCHEM_MOLECULAR_FORMULA>
B2Be

> <PUBCHEM_MOLECULAR_WEIGHT>
30.64

> <PUBCHEM_SMILES>
[Be+2].[B-].[B-]

> <PUBCHEM_CONNECTIVITY_SMILES>
[Be+2].[B-].[B-]

> <PUBCHEM_CACTVS_TPSA>
0

> <PUBCHEM_MONOISOTOPIC_WEIGHT>
31.0307934

> <PUBCHEM_TOTAL_CHARGE>
0

> <PUBCHEM_HEAVY_ATOM_COUNT>
3

> <PUBCHEM_ATOM_DEF_STEREO_COUNT>
0

> <PUBCHEM_ATOM_UDEF_STEREO_COUNT>
0

> <PUBCHEM_BOND_DEF_STEREO_COUNT>
0

> <PUBCHEM_BOND_UDEF_STEREO_COUNT>
0

> <PUBCHEM_ISOTOPIC_ATOM_COUNT>
0

> <PUBCHEM_COMPONENT_COUNT>
3

> <PUBCHEM_CACTVS_TAUTO_COUNT>
-1

> <PUBCHEM_COORDINATE_TYPE>
1
5
255

$$$$
