83605
  -OEChem-08152605342D

  2  1  0     0  0  0  0  0  0999 V2000
    3.0000    0.0000    0.0000 S   0  0  0  0  0  0  0  0  0  0  0  0
    2.0000    0.0000    0.0000 Be  0  0  0  0  0  0  0  0  0  0  0  0
  1  2  2  0  0  0  0
M  END
> <PUBCHEM_COMPOUND_CID>
83605

> <PUBCHEM_COMPOUND_CANONICALIZED>
1

> <PUBCHEM_CACTVS_COMPLEXITY>
2

> <PUBCHEM_CACTVS_HBOND_ACCEPTOR>
1

> <PUBCHEM_CACTVS_HBOND_DONOR>
0

> <PUBCHEM_CACTVS_ROTATABLE_BOND>
0

> <PUBCHEM_CACTVS_SUBSKEYS>
AAADcQAAAABAAEAAAAAAAAAAAAAAAAAAAAAAAAAAAAAAAAAAAAAAAAAAAAAAAAAAAAAAAAAAAAAAAAAAAAAAAAAAAAAAAAAAAAAAAAAAAAAAAAAAAAAAAAAAAAAAAAAAAAAAAAAAAAAAAAAAAAAAAAAAAA==

> <PUBCHEM_IUPAC_OPENEYE_NAME>
thioxoberyllium

> <PUBCHEM_IUPAC_CAS_NAME>
sulfanylideneberyllium

> <PUBCHEM_IUPAC_NAME_MARKUP>
sulfanylideneberyllium

> <PUBCHEM_IUPAC_NAME>
sulfanylideneberyllium

> <PUBCHEM_IUPAC_SYSTEMATIC_NAME>
sulfanylideneberyllium

> <PUBCHEM_IUPAC_TRADITIONAL_NAME>
thioxoberyllium

> <PUBCHEM_IUPAC_INCHI>
InChI=1S/Be.S

> <PUBCHEM_IUPAC_INCHIKEY>
FQDSYGKTHDFFCM-UHFFFAOYSA-N

> <PUBCHEM_EXACT_MASS>
40.9842542

> <PUBCHEM_MOLECULAR_FORMULA>
BeS

> <PUBCHEM_MOLECULAR_WEIGHT>
41.08

> <PUBCHEM_SMILES>
[Be]=S

> <PUBCHEM_CONNECTIVITY_SMILES>
[Be]=S

> <PUBCHEM_CACTVS_TPSA>
32.1

> <PUBCHEM_MONOISOTOPIC_WEIGHT>
40.9842542

> <PUBCHEM_TOTAL_CHARGE>
0

> <PUBCHEM_HEAVY_ATOM_COUNT>
2

> <PUBCHEM_ATOM_DEF_STEREO_COUNT>
0

> <PUBCHEM_ATOM_UDEF_STEREO_COUNT>
0

> <PUBCHEM_BOND_DEF_STEREO_COUNT>
0

> <PUBCHEM_BOND_UDEF_STEREO_COUNT>
0

> <PUBCHEM_ISOTOPIC_ATOM_COUNT>
0

> <PUBCHEM_COMPONENT_COUNT>
1

> <PUBCHEM_CACTVS_TAUTO_COUNT>
-1

> <PUBCHEM_COORDINATE_TYPE>
1
5
255

$$$$
