61577
  -OEChem-08152606542D

  5  3  0     0  0  0  0  0  0999 V2000
    2.7071   -0.8536    0.0000 O   0  5  0  0  0  0  0  0  0  0  0  0
    3.7071    0.1464    0.0000 O   0  5  0  0  0  0  0  0  0  0  0  0
    2.0000    0.8536    0.0000 O   0  0  0  0  0  0  0  0  0  0  0  0
    2.7071    0.1464    0.0000 C   0  0  0  0  0  0  0  0  0  0  0  0
    3.7071   -0.8536    0.0000 Be  0  2  0  0  0  0  0  0  0  0  0  0
  1  4  1  0  0  0  0
  2  4  1  0  0  0  0
  3  4  2  0  0  0  0
M  CHG  3   1  -1   2  -1   5   2
M  END
> <PUBCHEM_COMPOUND_CID>
61577

> <PUBCHEM_COMPOUND_CANONICALIZED>
1

> <PUBCHEM_CACTVS_COMPLEXITY>
18.8

> <PUBCHEM_CACTVS_HBOND_ACCEPTOR>
3

> <PUBCHEM_CACTVS_HBOND_DONOR>
0

> <PUBCHEM_CACTVS_ROTATABLE_BOND>
0

> <PUBCHEM_CACTVS_SUBSKEYS>
AAADcQAAMAAAAEAAAAAAAAAAAAAAAAAAAAAAAAAAAAAAAAAAAAAAAgAAAAAAAAAAAAAACAAAAAAIAAAACAAAAAAAAAAAAAAAAAAAAAAAAAAAAAAAAAAAAAAAAAAAAAAAAAAAAAAAAAAAAAAAAAAAAAAAAA==

> <PUBCHEM_IUPAC_OPENEYE_NAME>
beryllium carbonate

> <PUBCHEM_IUPAC_CAS_NAME>
beryllium carbonate

> <PUBCHEM_IUPAC_NAME_MARKUP>
beryllium carbonate

> <PUBCHEM_IUPAC_NAME>
beryllium carbonate

> <PUBCHEM_IUPAC_SYSTEMATIC_NAME>
beryllium carbonate

> <PUBCHEM_IUPAC_TRADITIONAL_NAME>
beryllium carbonate

> <PUBCHEM_IUPAC_INCHI>
InChI=1S/CH2O3.Be/c2-1(3)4;/h(H2,2,3,4);/q;+2/p-2

> <PUBCHEM_IUPAC_INCHIKEY>
ZBUQRSWEONVBES-UHFFFAOYSA-L

> <PUBCHEM_EXACT_MASS>
68.9969269

> <PUBCHEM_MOLECULAR_FORMULA>
CBeO3

> <PUBCHEM_MOLECULAR_WEIGHT>
69.021

> <PUBCHEM_SMILES>
[Be+2].C(=O)([O-])[O-]

> <PUBCHEM_CONNECTIVITY_SMILES>
[Be+2].C(=O)([O-])[O-]

> <PUBCHEM_CACTVS_TPSA>
63.2

> <PUBCHEM_MONOISOTOPIC_WEIGHT>
68.9969269

> <PUBCHEM_TOTAL_CHARGE>
0

> <PUBCHEM_HEAVY_ATOM_COUNT>
5

> <PUBCHEM_ATOM_DEF_STEREO_COUNT>
0

> <PUBCHEM_ATOM_UDEF_STEREO_COUNT>
0

> <PUBCHEM_BOND_DEF_STEREO_COUNT>
0

> <PUBCHEM_BOND_UDEF_STEREO_COUNT>
0

> <PUBCHEM_ISOTOPIC_ATOM_COUNT>
0

> <PUBCHEM_COMPONENT_COUNT>
2

> <PUBCHEM_CACTVS_TAUTO_COUNT>
-1

> <PUBCHEM_COORDINATE_TYPE>
1
5
255

$$$$
