129631211
  -OEChem-08152605072D

  7  4  0     0  0  0  0  0  0999 V2000
    0.6830    1.3660    0.0000 N   0  3  0  0  0  0  0  0  0  0  0  0
    1.5490    0.8660    0.0000 N   0  5  0  0  0  0  0  0  0  0  0  0
    0.1830    0.5000    0.0000 N   0  5  0  0  0  0  0  0  0  0  0  0
    0.8660    3.8660    0.0000 N   0  3  0  0  0  0  0  0  0  0  0  0
    1.7320    4.3660    0.0000 N   0  5  0  0  0  0  0  0  0  0  0  0
    0.0000    3.3660    0.0000 N   0  5  0  0  0  0  0  0  0  0  0  0
    1.0490    0.0000    0.0000 Be  0  2  0  0  0  0  0  0  0  0  0  0
  1  2  2  0  0  0  0
  1  3  2  0  0  0  0
  4  5  2  0  0  0  0
  4  6  2  0  0  0  0
M  CHG  7   1   1   2  -1   3  -1   4   1   5  -1   6  -1   7   2
M  END
> <PUBCHEM_COMPOUND_CID>
129631211

> <PUBCHEM_COMPOUND_CANONICALIZED>
1

> <PUBCHEM_CACTVS_COMPLEXITY>
34.3

> <PUBCHEM_CACTVS_HBOND_ACCEPTOR>
4

> <PUBCHEM_CACTVS_HBOND_DONOR>
0

> <PUBCHEM_CACTVS_ROTATABLE_BOND>
0

> <PUBCHEM_CACTVS_SUBSKEYS>
AAADcQADgAAAAEAAAAAAAAAAAABAAAAAAAAAAAAAAAAAAAAAAAAAAAAIAAAAAAAAAAAAAAAAAAACAAAAAAAAAAAAAAAAAAAAAAAAAAAAAAAAAAAAAAAAAAAAAAAAAAAAAAAAAAAAAAAAAAAAAAAAAAAAAA==

> <PUBCHEM_IUPAC_OPENEYE_NAME>
beryllium diazide

> <PUBCHEM_IUPAC_CAS_NAME>
beryllium diazide

> <PUBCHEM_IUPAC_NAME_MARKUP>
beryllium diazide

> <PUBCHEM_IUPAC_NAME>
beryllium diazide

> <PUBCHEM_IUPAC_SYSTEMATIC_NAME>
beryllium diazide

> <PUBCHEM_IUPAC_TRADITIONAL_NAME>
beryllium diazide

> <PUBCHEM_IUPAC_INCHI>
InChI=1S/Be.2N3/c;2*1-3-2/q+2;2*-1

> <PUBCHEM_IUPAC_INCHIKEY>
FGTDFEYQGIRFTE-UHFFFAOYSA-N

> <PUBCHEM_EXACT_MASS>
93.0306271

> <PUBCHEM_MOLECULAR_FORMULA>
BeN6

> <PUBCHEM_MOLECULAR_WEIGHT>
93.05

> <PUBCHEM_SMILES>
[Be+2].[N-]=[N+]=[N-].[N-]=[N+]=[N-]

> <PUBCHEM_CONNECTIVITY_SMILES>
[Be+2].[N-]=[N+]=[N-].[N-]=[N+]=[N-]

> <PUBCHEM_CACTVS_TPSA>
6

> <PUBCHEM_MONOISOTOPIC_WEIGHT>
93.0306271

> <PUBCHEM_TOTAL_CHARGE>
0

> <PUBCHEM_HEAVY_ATOM_COUNT>
7

> <PUBCHEM_ATOM_DEF_STEREO_COUNT>
0

> <PUBCHEM_ATOM_UDEF_STEREO_COUNT>
0

> <PUBCHEM_BOND_DEF_STEREO_COUNT>
0

> <PUBCHEM_BOND_UDEF_STEREO_COUNT>
0

> <PUBCHEM_ISOTOPIC_ATOM_COUNT>
0

> <PUBCHEM_COMPONENT_COUNT>
3

> <PUBCHEM_CACTVS_TAUTO_COUNT>
-1

> <PUBCHEM_NONSTANDARDBOND>
2  7  7
3  7  7

> <PUBCHEM_COORDINATE_TYPE>
1
5
255

$$$$
