27131
  -OEChem-08152604582D

  7  4  0     0  0  0  0  0  0999 V2000
    2.7071    0.0000    0.0000 Si  0  0  0  0  0  0  0  0  0  0  0  0
    3.4142    0.7071    0.0000 O   0  5  0  0  0  0  0  0  0  0  0  0
    2.0000    0.7071    0.0000 O   0  5  0  0  0  0  0  0  0  0  0  0
    2.0000   -0.7071    0.0000 O   0  5  0  0  0  0  0  0  0  0  0  0
    3.4142   -0.7071    0.0000 O   0  5  0  0  0  0  0  0  0  0  0  0
    2.7071    1.4142    0.0000 Be  0  2  0  0  0  0  0  0  0  0  0  0
    2.7071   -1.4142    0.0000 Be  0  2  0  0  0  0  0  0  0  0  0  0
  1  2  1  0  0  0  0
  1  3  1  0  0  0  0
  1  4  1  0  0  0  0
  1  5  1  0  0  0  0
M  CHG  6   2  -1   3  -1   4  -1   5  -1   6   2   7   2
M  END
> <PUBCHEM_COMPOUND_CID>
27131

> <PUBCHEM_COMPOUND_CANONICALIZED>
1

> <PUBCHEM_CACTVS_COMPLEXITY>
19.1

> <PUBCHEM_CACTVS_HBOND_ACCEPTOR>
4

> <PUBCHEM_CACTVS_HBOND_DONOR>
0

> <PUBCHEM_CACTVS_ROTATABLE_BOND>
0

> <PUBCHEM_CACTVS_SUBSKEYS>
AAADcQAAOAgAAEAAAAAAAAAAAAAAAAAAAAAAAAAAAAAAAAAAAAAAAAAAAEAAAAAAAAAAAAAAAAAAAAAAAAAAAAAAAAAAAAAAAAAAAAAAAAAAAAAAAAAAAAAAAAAAAAAAAAAAAAAAAAAAAAAAAAAAAAAAAA==

> <PUBCHEM_IUPAC_OPENEYE_NAME>
diberyllium;silicate

> <PUBCHEM_IUPAC_CAS_NAME>
diberyllium;silicate

> <PUBCHEM_IUPAC_NAME_MARKUP>
diberyllium;silicate

> <PUBCHEM_IUPAC_NAME>
diberyllium;silicate

> <PUBCHEM_IUPAC_SYSTEMATIC_NAME>
diberyllium;silicate

> <PUBCHEM_IUPAC_TRADITIONAL_NAME>
diberyllium;orthosilicate

> <PUBCHEM_IUPAC_INCHI>
InChI=1S/2Be.O4Si/c;;1-5(2,3)4/q2*+2;-4

> <PUBCHEM_IUPAC_INCHIKEY>
QZVSYHUREAVHQG-UHFFFAOYSA-N

> <PUBCHEM_EXACT_MASS>
109.980951

> <PUBCHEM_MOLECULAR_FORMULA>
Be2O4Si

> <PUBCHEM_MOLECULAR_WEIGHT>
110.11

> <PUBCHEM_SMILES>
[Be+2].[Be+2].[O-][Si]([O-])([O-])[O-]

> <PUBCHEM_CONNECTIVITY_SMILES>
[Be+2].[Be+2].[O-][Si]([O-])([O-])[O-]

> <PUBCHEM_CACTVS_TPSA>
92.2

> <PUBCHEM_MONOISOTOPIC_WEIGHT>
109.980951

> <PUBCHEM_TOTAL_CHARGE>
0

> <PUBCHEM_HEAVY_ATOM_COUNT>
7

> <PUBCHEM_ATOM_DEF_STEREO_COUNT>
0

> <PUBCHEM_ATOM_UDEF_STEREO_COUNT>
0

> <PUBCHEM_BOND_DEF_STEREO_COUNT>
0

> <PUBCHEM_BOND_UDEF_STEREO_COUNT>
0

> <PUBCHEM_ISOTOPIC_ATOM_COUNT>
0

> <PUBCHEM_COMPONENT_COUNT>
3

> <PUBCHEM_CACTVS_TAUTO_COUNT>
-1

> <PUBCHEM_COORDINATE_TYPE>
1
5
255

$$$$
