6453515
  -OEChem-08152604232D

  5  0  0     0  0  0  0  0  0999 V2000
    2.8660    0.2500    0.0000 P   0  7  0  0  0  0  0  0  0  0  0  0
    4.5981    0.2500    0.0000 P   0  7  0  0  0  0  0  0  0  0  0  0
    3.7321    0.7500    0.0000 Be  0  2  0  0  0  0  0  0  0  0  0  0
    2.0000    0.7500    0.0000 Be  0  2  0  0  0  0  0  0  0  0  0  0
    2.8660   -0.7500    0.0000 Be  0  2  0  0  0  0  0  0  0  0  0  0
M  CHG  5   1  -3   2  -3   3   2   4   2   5   2
M  END
> <PUBCHEM_COMPOUND_CID>
6453515

> <PUBCHEM_COMPOUND_CANONICALIZED>
1

> <PUBCHEM_CACTVS_COMPLEXITY>
0

> <PUBCHEM_CACTVS_HBOND_ACCEPTOR>
2

> <PUBCHEM_CACTVS_HBOND_DONOR>
0

> <PUBCHEM_CACTVS_ROTATABLE_BOND>
0

> <PUBCHEM_CACTVS_SUBSKEYS>
AAADcQAAAAMAAEAAAAAAAAAAAAAAAAAAAAAAAAAAAAAAAAAAAAAAAAAAAAAAAAAAAAAAAAAAAAAAAAAAAAAAAAAAAAAAAAAAAAAAAAAAAAAAAAAAAAAAAAAAAAAAAAAAAAAAAAAAAAAAAAAAAAAAAAAAAA==

> <PUBCHEM_IUPAC_OPENEYE_NAME>
triberyllium bis(phosphorus(3-))

> <PUBCHEM_IUPAC_CAS_NAME>
triberyllium bis(phosphorus(3-))

> <PUBCHEM_IUPAC_NAME_MARKUP>
triberyllium bis(phosphorus(3-))

> <PUBCHEM_IUPAC_NAME>
triberyllium bis(phosphorus(3-))

> <PUBCHEM_IUPAC_SYSTEMATIC_NAME>
triberyllium bis(phosphorus(3-))

> <PUBCHEM_IUPAC_TRADITIONAL_NAME>
triberyllium bis(phosphorus(3-))

> <PUBCHEM_IUPAC_INCHI>
InChI=1S/3Be.2P/q3*+2;2*-3

> <PUBCHEM_IUPAC_INCHIKEY>
JQJOLPDVNHLLKT-UHFFFAOYSA-N

> <PUBCHEM_EXACT_MASS>
88.984073

> <PUBCHEM_MOLECULAR_FORMULA>
Be3P2

> <PUBCHEM_MOLECULAR_WEIGHT>
88.984073

> <PUBCHEM_SMILES>
[Be+2].[Be+2].[Be+2].[P-3].[P-3]

> <PUBCHEM_CONNECTIVITY_SMILES>
[Be+2].[Be+2].[Be+2].[P-3].[P-3]

> <PUBCHEM_CACTVS_TPSA>
0

> <PUBCHEM_MONOISOTOPIC_WEIGHT>
88.984073

> <PUBCHEM_TOTAL_CHARGE>
0

> <PUBCHEM_HEAVY_ATOM_COUNT>
5

> <PUBCHEM_ATOM_DEF_STEREO_COUNT>
0

> <PUBCHEM_ATOM_UDEF_STEREO_COUNT>
0

> <PUBCHEM_BOND_DEF_STEREO_COUNT>
0

> <PUBCHEM_BOND_UDEF_STEREO_COUNT>
0

> <PUBCHEM_ISOTOPIC_ATOM_COUNT>
0

> <PUBCHEM_COMPONENT_COUNT>
5

> <PUBCHEM_CACTVS_TAUTO_COUNT>
-1

> <PUBCHEM_COORDINATE_TYPE>
1
5
255

$$$$
