498840
  -OEChem-08152605512D

 29 28  0     0  0  0  0  0  0999 V2000
    6.2089    0.0000    0.0000 Pd  0  0  0  0  0  0  0  0  0  0  0  0
    7.0749    0.5000    0.0000 Cl  0  0  0  0  0  0  0  0  0  0  0  0
    5.3429    0.5000    0.0000 Cl  0  0  0  0  0  0  0  0  0  0  0  0
    1.4030    5.8700    0.0000 N   0  0  0  0  0  0  0  0  0  0  0  0
    6.2089    7.1200    0.0000 N   0  0  0  0  0  0  0  0  0  0  0  0
    1.4030    3.8700    0.0000 C   0  0  0  0  0  0  0  0  0  0  0  0
    6.2089    5.1200    0.0000 C   0  0  0  0  0  0  0  0  0  0  0  0
    0.5369    3.3700    0.0000 C   0  0  0  0  0  0  0  0  0  0  0  0
    5.3429    4.6200    0.0000 C   0  0  0  0  0  0  0  0  0  0  0  0
    2.2690    3.3700    0.0000 C   0  0  0  0  0  0  0  0  0  0  0  0
    7.0749    4.6200    0.0000 C   0  0  0  0  0  0  0  0  0  0  0  0
    0.5369    2.3700    0.0000 C   0  0  0  0  0  0  0  0  0  0  0  0
    5.3429    3.6200    0.0000 C   0  0  0  0  0  0  0  0  0  0  0  0
    2.2690    2.3700    0.0000 C   0  0  0  0  0  0  0  0  0  0  0  0
    7.0749    3.6200    0.0000 C   0  0  0  0  0  0  0  0  0  0  0  0
    1.4030    1.8700    0.0000 C   0  0  0  0  0  0  0  0  0  0  0  0
    6.2089    3.1200    0.0000 C   0  0  0  0  0  0  0  0  0  0  0  0
    1.4030    4.8700    0.0000 C   0  0  0  0  0  0  0  0  0  0  0  0
    6.2089    6.1200    0.0000 C   0  0  0  0  0  0  0  0  0  0  0  0
    0.0000    3.6800    0.0000 H   0  0  0  0  0  0  0  0  0  0  0  0
    4.8059    4.9300    0.0000 H   0  0  0  0  0  0  0  0  0  0  0  0
    2.8059    3.6800    0.0000 H   0  0  0  0  0  0  0  0  0  0  0  0
    7.6119    4.9300    0.0000 H   0  0  0  0  0  0  0  0  0  0  0  0
    0.0000    2.0600    0.0000 H   0  0  0  0  0  0  0  0  0  0  0  0
    4.8059    3.3100    0.0000 H   0  0  0  0  0  0  0  0  0  0  0  0
    2.8059    2.0600    0.0000 H   0  0  0  0  0  0  0  0  0  0  0  0
    7.6119    3.3100    0.0000 H   0  0  0  0  0  0  0  0  0  0  0  0
    1.4030    1.2500    0.0000 H   0  0  0  0  0  0  0  0  0  0  0  0
    6.2089    2.5000    0.0000 H   0  0  0  0  0  0  0  0  0  0  0  0
  1  2  1  0  0  0  0
  1  3  1  0  0  0  0
  4 18  3  0  0  0  0
  5 19  3  0  0  0  0
  6  8  2  0  0  0  0
  6 10  1  0  0  0  0
  6 18  1  0  0  0  0
  7  9  2  0  0  0  0
  7 11  1  0  0  0  0
  7 19  1  0  0  0  0
  8 12  1  0  0  0  0
  8 20  1  0  0  0  0
  9 13  1  0  0  0  0
  9 21  1  0  0  0  0
 10 14  2  0  0  0  0
 10 22  1  0  0  0  0
 11 15  2  0  0  0  0
 11 23  1  0  0  0  0
 12 16  2  0  0  0  0
 12 24  1  0  0  0  0
 13 17  2  0  0  0  0
 13 25  1  0  0  0  0
 14 16  1  0  0  0  0
 14 26  1  0  0  0  0
 15 17  1  0  0  0  0
 15 27  1  0  0  0  0
 16 28  1  0  0  0  0
 17 29  1  0  0  0  0
M  END
> <PUBCHEM_COMPOUND_CID>
498840

> <PUBCHEM_COMPOUND_CANONICALIZED>
1

> <PUBCHEM_CACTVS_COMPLEXITY>
106

> <PUBCHEM_CACTVS_HBOND_ACCEPTOR>
2

> <PUBCHEM_CACTVS_HBOND_DONOR>
0

> <PUBCHEM_CACTVS_ROTATABLE_BOND>
0

> <PUBCHEM_CACTVS_SUBSKEYS>
AAADccBzAAAGAAAAAAgAAAAAAAAAAAAAAAAwYAAAAAAAAAABQAAAHAAAAAAADACBGAAwAIAAAACQBiBCAAAiAAAgAAAIiAAAAIgIoCKAERCAIAAggAAIiA8AgAAOAAAAAAAAAAAAAAAAAAAAAAAAAAAAAA==

> <PUBCHEM_IUPAC_OPENEYE_NAME>
bis(benzonitrile);dichloropalladium

> <PUBCHEM_IUPAC_CAS_NAME>
bis(benzonitrile);dichloropalladium

> <PUBCHEM_IUPAC_NAME_MARKUP>
bis(benzonitrile);dichloropalladium

> <PUBCHEM_IUPAC_NAME>
bis(benzonitrile);dichloropalladium

> <PUBCHEM_IUPAC_SYSTEMATIC_NAME>
bis(benzenecarbonitrile);bis(chloranyl)palladium

> <PUBCHEM_IUPAC_TRADITIONAL_NAME>
bis(benzonitrile);dichloropalladium

> <PUBCHEM_IUPAC_INCHI>
InChI=1S/2C7H5N.2ClH.Pd/c2*8-6-7-4-2-1-3-5-7;;;/h2*1-5H;2*1H;/q;;;;+2/p-2

> <PUBCHEM_IUPAC_INCHIKEY>
WXNOJTUTEXAZLD-UHFFFAOYSA-L

> <PUBCHEM_EXACT_MASS>
381.92558

> <PUBCHEM_MOLECULAR_FORMULA>
C14H10Cl2N2Pd

> <PUBCHEM_MOLECULAR_WEIGHT>
383.6

> <PUBCHEM_SMILES>
C1=CC=C(C=C1)C#N.C1=CC=C(C=C1)C#N.Cl[Pd]Cl

> <PUBCHEM_CONNECTIVITY_SMILES>
C1=CC=C(C=C1)C#N.C1=CC=C(C=C1)C#N.Cl[Pd]Cl

> <PUBCHEM_CACTVS_TPSA>
47.6

> <PUBCHEM_MONOISOTOPIC_WEIGHT>
381.92558

> <PUBCHEM_TOTAL_CHARGE>
0

> <PUBCHEM_HEAVY_ATOM_COUNT>
19

> <PUBCHEM_ATOM_DEF_STEREO_COUNT>
0

> <PUBCHEM_ATOM_UDEF_STEREO_COUNT>
0

> <PUBCHEM_BOND_DEF_STEREO_COUNT>
0

> <PUBCHEM_BOND_UDEF_STEREO_COUNT>
0

> <PUBCHEM_ISOTOPIC_ATOM_COUNT>
0

> <PUBCHEM_COMPONENT_COUNT>
3

> <PUBCHEM_CACTVS_TAUTO_COUNT>
-1

> <PUBCHEM_COORDINATE_TYPE>
1
5
255

> <PUBCHEM_BONDANNOTATIONS>
10  14  8
11  15  8
12  16  8
13  17  8
14  16  8
15  17  8
6  10  8
6  8  8
7  11  8
7  9  8
8  12  8
9  13  8

$$$$
