159696706
  -OEChem-08152606382D

  3  1  0     0  0  0  0  0  0999 V2000
    2.8660   -0.2500    0.0000 Bi  0  3  0  0  0  0  0  0  0  0  0  0
    2.0000    0.2500    0.0000 Br  0  5  0  0  0  0  0  0  0  0  0  0
    3.7320    0.2500    0.0000 O   0  0  0  0  0  0  0  0  0  0  0  0
  1  3  2  0  0  0  0
M  CHG  2   1   1   2  -1
M  END
> <PUBCHEM_COMPOUND_CID>
159696706

> <PUBCHEM_COMPOUND_CANONICALIZED>
1

> <PUBCHEM_CACTVS_COMPLEXITY>
2

> <PUBCHEM_CACTVS_HBOND_ACCEPTOR>
2

> <PUBCHEM_CACTVS_HBOND_DONOR>
0

> <PUBCHEM_CACTVS_ROTATABLE_BOND>
0

> <PUBCHEM_CACTVS_SUBSKEYS>
AAADcQAAIAAAEAAAAAAAACAAAAAAAAAAAAAAAAAAAAAAAAAAAAAAAAAAAAAAAAAAAAAAAAAAAAAAAAAAAAAAAAAAAAAAAAAAAAAAAAAAAAAAAAAAAAAAAAAAAAAAAAAAAAAAAAAAAAAAAAAAAAAAAAAAAA==

> <PUBCHEM_IUPAC_OPENEYE_NAME>
oxobismuthanylium bromide

> <PUBCHEM_IUPAC_CAS_NAME>
oxobismuthinylium bromide

> <PUBCHEM_IUPAC_NAME_MARKUP>
oxobismuthanylium bromide

> <PUBCHEM_IUPAC_NAME>
oxobismuthanylium bromide

> <PUBCHEM_IUPAC_SYSTEMATIC_NAME>
oxidanylidenebismuthanylium bromide

> <PUBCHEM_IUPAC_TRADITIONAL_NAME>
ketobismuthinylium bromide

> <PUBCHEM_IUPAC_INCHI>
InChI=1S/Bi.BrH.O/h;1H;/q+1;;/p-1

> <PUBCHEM_IUPAC_INCHIKEY>
MXCHXTNSCYEQSX-UHFFFAOYSA-M

> <PUBCHEM_EXACT_MASS>
303.89365

> <PUBCHEM_MOLECULAR_FORMULA>
BiBrO

> <PUBCHEM_MOLECULAR_WEIGHT>
304.88

> <PUBCHEM_SMILES>
O=[Bi+].[Br-]

> <PUBCHEM_CONNECTIVITY_SMILES>
O=[Bi+].[Br-]

> <PUBCHEM_CACTVS_TPSA>
17.1

> <PUBCHEM_MONOISOTOPIC_WEIGHT>
303.89365

> <PUBCHEM_TOTAL_CHARGE>
0

> <PUBCHEM_HEAVY_ATOM_COUNT>
3

> <PUBCHEM_ATOM_DEF_STEREO_COUNT>
0

> <PUBCHEM_ATOM_UDEF_STEREO_COUNT>
0

> <PUBCHEM_BOND_DEF_STEREO_COUNT>
0

> <PUBCHEM_BOND_UDEF_STEREO_COUNT>
0

> <PUBCHEM_ISOTOPIC_ATOM_COUNT>
0

> <PUBCHEM_COMPONENT_COUNT>
2

> <PUBCHEM_CACTVS_TAUTO_COUNT>
-1

> <PUBCHEM_COORDINATE_TYPE>
1
5
255

$$$$
