9827661
  -OEChem-08152607002D

  8  3  0     0  0  0  0  0  0999 V2000
    3.7071    0.1124    0.0000 Bi  0  1  0  0  0  0  0  0  0  0  0  0
    4.1554   -1.5607    0.0000 Bi  0  1  0  0  0  0  0  0  0  0  0  0
    3.7071    1.1124    0.0000 O   0  5  0  0  0  0  0  0  0  0  0  0
    2.7071    0.1124    0.0000 O   0  5  0  0  0  0  0  0  0  0  0  0
    2.0000    1.8195    0.0000 O   0  0  0  0  0  0  0  0  0  0  0  0
    4.4142   -0.5947    0.0000 O   0  6  0  0  0  0  0  0  0  0  0  0
    3.1895   -1.8195    0.0000 O   0  6  0  0  0  0  0  0  0  0  0  0
    2.7071    1.1124    0.0000 C   0  0  0  0  0  0  0  0  0  0  0  0
  3  8  1  0  0  0  0
  4  8  1  0  0  0  0
  5  8  2  0  0  0  0
M  CHG  6   1   3   2   3   3  -1   4  -1   6  -2   7  -2
M  END
> <PUBCHEM_COMPOUND_CID>
9827661

> <PUBCHEM_COMPOUND_CANONICALIZED>
1

> <PUBCHEM_CACTVS_COMPLEXITY>
18.8

> <PUBCHEM_CACTVS_HBOND_ACCEPTOR>
5

> <PUBCHEM_CACTVS_HBOND_DONOR>
0

> <PUBCHEM_CACTVS_ROTATABLE_BOND>
0

> <PUBCHEM_CACTVS_SUBSKEYS>
AAADcQAAOAAAAAAAAAAAACAAAAAAAAAAAAAAAAAAAAAAAAAAAAAAAgAAAAAAAAAAAAAACAAAAAAIAAAACAAAAAAAAAAAAAAAAAAAAAAAAAAAAAAAAAAAAAAAAAAAAAAAAAAAAAAAAAAAAAAAAAAAAAAAAA==

> <PUBCHEM_IUPAC_OPENEYE_NAME>
dibismuth;bis(oxygen(2-));carbonate

> <PUBCHEM_IUPAC_CAS_NAME>
dibismuth;bis(oxygen(2-));carbonate

> <PUBCHEM_IUPAC_NAME_MARKUP>
dibismuth;bis(oxygen(2-));carbonate

> <PUBCHEM_IUPAC_NAME>
dibismuth;bis(oxygen(2-));carbonate

> <PUBCHEM_IUPAC_SYSTEMATIC_NAME>
dibismuth;bis(oxygen(2-));carbonate

> <PUBCHEM_IUPAC_TRADITIONAL_NAME>
dibismuth;bis(oxygen(2-));carbonate

> <PUBCHEM_IUPAC_INCHI>
InChI=1S/CH2O3.2Bi.2O/c2-1(3)4;;;;/h(H2,2,3,4);;;;/q;2*+3;2*-2/p-2

> <PUBCHEM_IUPAC_INCHIKEY>
FWIZHMQARNODNX-UHFFFAOYSA-L

> <PUBCHEM_EXACT_MASS>
509.93537

> <PUBCHEM_MOLECULAR_FORMULA>
CBi2O5

> <PUBCHEM_MOLECULAR_WEIGHT>
509.97

> <PUBCHEM_SMILES>
C(=O)([O-])[O-].[O-2].[O-2].[Bi+3].[Bi+3]

> <PUBCHEM_CONNECTIVITY_SMILES>
C(=O)([O-])[O-].[O-2].[O-2].[Bi+3].[Bi+3]

> <PUBCHEM_CACTVS_TPSA>
65.2

> <PUBCHEM_MONOISOTOPIC_WEIGHT>
509.93537

> <PUBCHEM_TOTAL_CHARGE>
0

> <PUBCHEM_HEAVY_ATOM_COUNT>
8

> <PUBCHEM_ATOM_DEF_STEREO_COUNT>
0

> <PUBCHEM_ATOM_UDEF_STEREO_COUNT>
0

> <PUBCHEM_BOND_DEF_STEREO_COUNT>
0

> <PUBCHEM_BOND_UDEF_STEREO_COUNT>
0

> <PUBCHEM_ISOTOPIC_ATOM_COUNT>
0

> <PUBCHEM_COMPONENT_COUNT>
5

> <PUBCHEM_CACTVS_TAUTO_COUNT>
-1

> <PUBCHEM_COORDINATE_TYPE>
1
5
255

$$$$
