53629521
  -OEChem-08152605372D

 17 15  0     0  0  0  0  0  0999 V2000
    5.5321   -0.9827    0.0000 Bi  0  1  0  0  0  0  0  0  0  0  0  0
    4.6660   -1.4827    0.0000 O   0  5  0  0  0  0  0  0  0  0  0  0
    5.5321    0.0173    0.0000 O   0  5  0  0  0  0  0  0  0  0  0  0
    4.6660    1.5173    0.0000 O   0  0  0  0  0  0  0  0  0  0  0  0
    6.3981   -1.4827    0.0000 O   0  5  0  0  0  0  0  0  0  0  0  0
    3.8000    0.0173    0.0000 C   0  0  0  0  0  0  0  0  0  0  0  0
    3.8000   -0.9827    0.0000 C   0  0  0  0  0  0  0  0  0  0  0  0
    2.9061    0.5520    0.0000 C   0  0  0  0  0  0  0  0  0  0  0  0
    2.9061   -1.5173    0.0000 C   0  0  0  0  0  0  0  0  0  0  0  0
    2.0000    0.0381    0.0000 C   0  0  0  0  0  0  0  0  0  0  0  0
    2.0000   -1.0035    0.0000 C   0  0  0  0  0  0  0  0  0  0  0  0
    4.6660    0.5173    0.0000 C   0  0  0  0  0  0  0  0  0  0  0  0
    2.9132    1.1720    0.0000 H   0  0  0  0  0  0  0  0  0  0  0  0
    2.9132   -2.1373    0.0000 H   0  0  0  0  0  0  0  0  0  0  0  0
    1.4643    0.3502    0.0000 H   0  0  0  0  0  0  0  0  0  0  0  0
    1.4643   -1.3156    0.0000 H   0  0  0  0  0  0  0  0  0  0  0  0
    6.9350   -1.1727    0.0000 H   0  0  0  0  0  0  0  0  0  0  0  0
  2  7  1  0  0  0  0
  3 12  1  0  0  0  0
  4 12  2  0  0  0  0
  5 17  1  0  0  0  0
  6  7  1  0  0  0  0
  6  8  2  0  0  0  0
  6 12  1  0  0  0  0
  7  9  2  0  0  0  0
  8 10  1  0  0  0  0
  8 13  1  0  0  0  0
  9 11  1  0  0  0  0
  9 14  1  0  0  0  0
 10 11  2  0  0  0  0
 10 15  1  0  0  0  0
 11 16  1  0  0  0  0
M  CHG  4   1   3   2  -1   3  -1   5  -1
M  END
> <PUBCHEM_COMPOUND_CID>
53629521

> <PUBCHEM_COMPOUND_CANONICALIZED>
1

> <PUBCHEM_CACTVS_COMPLEXITY>
127

> <PUBCHEM_CACTVS_HBOND_ACCEPTOR>
4

> <PUBCHEM_CACTVS_HBOND_DONOR>
1

> <PUBCHEM_CACTVS_ROTATABLE_BOND>
0

> <PUBCHEM_CACTVS_SUBSKEYS>
AAADcYBgOAAAAAAAAAAAACAAAAAAAAAAAAAwAAAAAAAAAAABAAAAGgAACAAADASAmAAwDoAAAACIAiDSCAACAAAkIAAIiAEGCMgIJzaAFRKAMUAl4BEIiYeIyCCOAAAAAAAIAAAAAAAAABAAAAAAAAAAAA==

> <PUBCHEM_IUPAC_OPENEYE_NAME>
bismuth;2-oxidobenzoate;hydroxide

> <PUBCHEM_IUPAC_CAS_NAME>
bismuth;2-oxidobenzoate;hydroxide

> <PUBCHEM_IUPAC_NAME_MARKUP>
bismuth;2-oxidobenzoate;hydroxide

> <PUBCHEM_IUPAC_NAME>
bismuth;2-oxidobenzoate;hydroxide

> <PUBCHEM_IUPAC_SYSTEMATIC_NAME>
bismuth;2-oxidanidylbenzoate;hydroxide

> <PUBCHEM_IUPAC_TRADITIONAL_NAME>
bismuth;2-oxidobenzoate;hydroxide

> <PUBCHEM_IUPAC_INCHI>
InChI=1S/C7H6O3.Bi.H2O/c8-6-4-2-1-3-5(6)7(9)10;;/h1-4,8H,(H,9,10);;1H2/q;+3;/p-3

> <PUBCHEM_IUPAC_INCHIKEY>
ZREIPSZUJIFJNP-UHFFFAOYSA-K

> <PUBCHEM_EXACT_MASS>
361.99918

> <PUBCHEM_MOLECULAR_FORMULA>
C7H5BiO4

> <PUBCHEM_MOLECULAR_WEIGHT>
362.09

> <PUBCHEM_SMILES>
C1=CC=C(C(=C1)C(=O)[O-])[O-].[OH-].[Bi+3]

> <PUBCHEM_CONNECTIVITY_SMILES>
C1=CC=C(C(=C1)C(=O)[O-])[O-].[OH-].[Bi+3]

> <PUBCHEM_CACTVS_TPSA>
64.2

> <PUBCHEM_MONOISOTOPIC_WEIGHT>
361.99918

> <PUBCHEM_TOTAL_CHARGE>
0

> <PUBCHEM_HEAVY_ATOM_COUNT>
12

> <PUBCHEM_ATOM_DEF_STEREO_COUNT>
0

> <PUBCHEM_ATOM_UDEF_STEREO_COUNT>
0

> <PUBCHEM_BOND_DEF_STEREO_COUNT>
0

> <PUBCHEM_BOND_UDEF_STEREO_COUNT>
0

> <PUBCHEM_ISOTOPIC_ATOM_COUNT>
0

> <PUBCHEM_COMPONENT_COUNT>
3

> <PUBCHEM_CACTVS_TAUTO_COUNT>
-1

> <PUBCHEM_COORDINATE_TYPE>
1
5
255

> <PUBCHEM_BONDANNOTATIONS>
10  11  8
6  7  8
6  8  8
7  9  8
8  10  8
9  11  8

$$$$
