10101269
  -OEChem-08152605002D

 40 34  0     0  0  0  0  0  0999 V2000
    7.3199   -0.0888    0.0000 Bi  0  1  0  0  0  0  0  0  0  0  0  0
   12.5160   -2.0888    0.0000 K   0  3  0  0  0  0  0  0  0  0  0  0
   11.4179    2.0093    0.0000 K   0  3  0  0  0  0  0  0  0  0  0  0
    2.9348    2.5888    0.0000 K   0  3  0  0  0  0  0  0  0  0  0  0
    5.2218   -1.4549    0.0000 O   0  0  0  0  0  0  0  0  0  0  0  0
    9.4180   -1.4549    0.0000 O   0  0  0  0  0  0  0  0  0  0  0  0
    6.4539   -0.5888    0.0000 O   0  5  0  0  0  0  0  0  0  0  0  0
    8.1859   -0.5888    0.0000 O   0  5  0  0  0  0  0  0  0  0  0  0
    5.5878    0.9112    0.0000 O   0  0  0  0  0  0  0  0  0  0  0  0
    9.0519    0.9112    0.0000 O   0  0  0  0  0  0  0  0  0  0  0  0
    3.1085    1.6040    0.0000 O   0  5  0  0  0  0  0  0  0  0  0  0
    7.3199    0.9112    0.0000 O   0  5  0  0  0  0  0  0  0  0  0  0
   11.6500   -2.5888    0.0000 O   0  5  0  0  0  0  0  0  0  0  0  0
   11.9179    1.1432    0.0000 O   0  5  0  0  0  0  0  0  0  0  0  0
    4.8142    1.9048    0.0000 O   0  0  0  0  0  0  0  0  0  0  0  0
    2.0000   -0.7317    0.0000 O   0  0  0  0  0  0  0  0  0  0  0  0
    9.9180   -2.5888    0.0000 O   0  0  0  0  0  0  0  0  0  0  0  0
   11.9179   -0.5888    0.0000 O   0  0  0  0  0  0  0  0  0  0  0  0
    4.7218   -0.5888    0.0000 C   0  0  0  0  0  0  0  0  0  0  0  0
    9.9180   -0.5888    0.0000 C   0  0  0  0  0  0  0  0  0  0  0  0
    4.2218    0.2772    0.0000 C   0  0  0  0  0  0  0  0  0  0  0  0
    3.8558   -1.0888    0.0000 C   0  0  0  0  0  0  0  0  0  0  0  0
   10.7840   -1.0888    0.0000 C   0  0  0  0  0  0  0  0  0  0  0  0
   10.4179    0.2772    0.0000 C   0  0  0  0  0  0  0  0  0  0  0  0
    5.5878   -0.0888    0.0000 C   0  0  0  0  0  0  0  0  0  0  0  0
    9.0519   -0.0888    0.0000 C   0  0  0  0  0  0  0  0  0  0  0  0
    4.0482    1.2620    0.0000 C   0  0  0  0  0  0  0  0  0  0  0  0
    2.9897   -0.5888    0.0000 C   0  0  0  0  0  0  0  0  0  0  0  0
   10.7840   -2.0888    0.0000 C   0  0  0  0  0  0  0  0  0  0  0  0
   11.4179    0.2772    0.0000 C   0  0  0  0  0  0  0  0  0  0  0  0
    3.6185    0.4202    0.0000 H   0  0  0  0  0  0  0  0  0  0  0  0
    4.8044    0.4892    0.0000 H   0  0  0  0  0  0  0  0  0  0  0  0
    3.4572   -1.5638    0.0000 H   0  0  0  0  0  0  0  0  0  0  0  0
    4.2543   -1.5638    0.0000 H   0  0  0  0  0  0  0  0  0  0  0  0
   11.3946   -1.1965    0.0000 H   0  0  0  0  0  0  0  0  0  0  0  0
   10.9960   -0.5062    0.0000 H   0  0  0  0  0  0  0  0  0  0  0  0
   10.5256    0.8878    0.0000 H   0  0  0  0  0  0  0  0  0  0  0  0
    9.8353    0.4892    0.0000 H   0  0  0  0  0  0  0  0  0  0  0  0
    4.9118   -1.9918    0.0000 H   0  0  0  0  0  0  0  0  0  0  0  0
    9.7280   -1.9918    0.0000 H   0  0  0  0  0  0  0  0  0  0  0  0
  5 19  1  0  0  0  0
  5 39  1  0  0  0  0
  6 20  1  0  0  0  0
  6 40  1  0  0  0  0
  7 25  1  0  0  0  0
  8 26  1  0  0  0  0
  9 25  2  0  0  0  0
 10 26  2  0  0  0  0
 11 27  1  0  0  0  0
 12 28  1  0  0  0  0
 13 29  1  0  0  0  0
 14 30  1  0  0  0  0
 15 27  2  0  0  0  0
 16 28  2  0  0  0  0
 17 29  2  0  0  0  0
 18 30  2  0  0  0  0
 19 21  1  0  0  0  0
 19 22  1  0  0  0  0
 19 25  1  0  0  0  0
 20 23  1  0  0  0  0
 20 24  1  0  0  0  0
 20 26  1  0  0  0  0
 21 27  1  0  0  0  0
 21 31  1  0  0  0  0
 21 32  1  0  0  0  0
 22 28  1  0  0  0  0
 22 33  1  0  0  0  0
 22 34  1  0  0  0  0
 23 29  1  0  0  0  0
 23 35  1  0  0  0  0
 23 36  1  0  0  0  0
 24 30  1  0  0  0  0
 24 37  1  0  0  0  0
 24 38  1  0  0  0  0
M  CHG  8   1   3   2   1   3   1   4   1   7  -1   8  -1  11  -1  12  -1
M  CHG  2  13  -1  14  -1
M  END
> <PUBCHEM_COMPOUND_CID>
10101269

> <PUBCHEM_COMPOUND_CANONICALIZED>
1

> <PUBCHEM_CACTVS_COMPLEXITY>
211

> <PUBCHEM_CACTVS_HBOND_ACCEPTOR>
14

> <PUBCHEM_CACTVS_HBOND_DONOR>
2

> <PUBCHEM_CACTVS_ROTATABLE_BOND>
4

> <PUBCHEM_CACTVS_SUBSKEYS>
AAADccBwPAAAYAAAAAAAACAAAAAAAAAAAAAAAAAAAAAAAAAAAAAAGgAACAAADESAgAAACAAAAgAIAACQCAIAAAAAAAAAAAFAAAABABYAAAAAQAAFIAABAADLJgAKAAAAAAAAAAAAAAAAAAAAAAAAAAAAAA==

> <PUBCHEM_IUPAC_OPENEYE_NAME>
bismuth;tripotassium;dicitrate

> <PUBCHEM_IUPAC_CAS_NAME>
bismuth;tripotassium;bis(2-hydroxypropane-1,2,3-tricarboxylate)

> <PUBCHEM_IUPAC_NAME_MARKUP>
bismuth;tripotassium;bis(2-hydroxypropane-1,2,3-tricarboxylate)

> <PUBCHEM_IUPAC_NAME>
bismuth;tripotassium;bis(2-hydroxypropane-1,2,3-tricarboxylate)

> <PUBCHEM_IUPAC_SYSTEMATIC_NAME>
bismuth;tripotassium;bis(2-oxidanylpropane-1,2,3-tricarboxylate)

> <PUBCHEM_IUPAC_TRADITIONAL_NAME>
bismuth;tripotassium;dicitrate

> <PUBCHEM_IUPAC_INCHI>
InChI=1S/2C6H8O7.Bi.3K/c2*7-3(8)1-6(13,5(11)12)2-4(9)10;;;;/h2*13H,1-2H2,(H,7,8)(H,9,10)(H,11,12);;;;/q;;+3;3*+1/p-6

> <PUBCHEM_IUPAC_INCHIKEY>
ZQUAVILLCXTKTF-UHFFFAOYSA-H

> <PUBCHEM_EXACT_MASS>
703.87857

> <PUBCHEM_MOLECULAR_FORMULA>
C12H10BiK3O14

> <PUBCHEM_MOLECULAR_WEIGHT>
704.47

> <PUBCHEM_SMILES>
C(C(=O)[O-])C(CC(=O)[O-])(C(=O)[O-])O.C(C(=O)[O-])C(CC(=O)[O-])(C(=O)[O-])O.[K+].[K+].[K+].[Bi+3]

> <PUBCHEM_CONNECTIVITY_SMILES>
C(C(=O)[O-])C(CC(=O)[O-])(C(=O)[O-])O.C(C(=O)[O-])C(CC(=O)[O-])(C(=O)[O-])O.[K+].[K+].[K+].[Bi+3]

> <PUBCHEM_CACTVS_TPSA>
281

> <PUBCHEM_MONOISOTOPIC_WEIGHT>
703.87857

> <PUBCHEM_TOTAL_CHARGE>
0

> <PUBCHEM_HEAVY_ATOM_COUNT>
30

> <PUBCHEM_ATOM_DEF_STEREO_COUNT>
0

> <PUBCHEM_ATOM_UDEF_STEREO_COUNT>
0

> <PUBCHEM_BOND_DEF_STEREO_COUNT>
0

> <PUBCHEM_BOND_UDEF_STEREO_COUNT>
0

> <PUBCHEM_ISOTOPIC_ATOM_COUNT>
0

> <PUBCHEM_COMPONENT_COUNT>
6

> <PUBCHEM_CACTVS_TAUTO_COUNT>
-1

> <PUBCHEM_COORDINATE_TYPE>
1
5
255

$$$$
