24591
  -OEChem-08152606172D

  4  3  0     0  0  0  0  0  0999 V2000
    2.8660    0.2500    0.0000 Bi  0  0  0  0  0  0  0  0  0  0  0  0
    3.7321    0.7500    0.0000 Cl  0  0  0  0  0  0  0  0  0  0  0  0
    2.0000    0.7500    0.0000 Cl  0  0  0  0  0  0  0  0  0  0  0  0
    2.8660   -0.7500    0.0000 Cl  0  0  0  0  0  0  0  0  0  0  0  0
  1  2  1  0  0  0  0
  1  3  1  0  0  0  0
  1  4  1  0  0  0  0
M  END
> <PUBCHEM_COMPOUND_CID>
24591

> <PUBCHEM_COMPOUND_CANONICALIZED>
1

> <PUBCHEM_CACTVS_COMPLEXITY>
8

> <PUBCHEM_CACTVS_HBOND_ACCEPTOR>
0

> <PUBCHEM_CACTVS_HBOND_DONOR>
0

> <PUBCHEM_CACTVS_ROTATABLE_BOND>
0

> <PUBCHEM_CACTVS_SUBSKEYS>
AAADcQAAAAAGAAAAAAAAACAAAAAAAAAAAAAAAAAAAAAAAAAAAAAAAAAAAAAAAAAAAAAAAAAAAAAAAAAAAAAAAAAAAAAAAAAAAAAAAAAAAAAAAAAAAAAAAAAAAAAAAAAAAAAAAAAAAAAAAAAAAAAAAAAAAA==

> <PUBCHEM_IUPAC_OPENEYE_NAME>
trichlorobismuthane

> <PUBCHEM_IUPAC_CAS_NAME>
trichlorobismuthine

> <PUBCHEM_IUPAC_NAME_MARKUP>
trichlorobismuthane

> <PUBCHEM_IUPAC_NAME>
trichlorobismuthane

> <PUBCHEM_IUPAC_SYSTEMATIC_NAME>
tris(chloranyl)bismuthane

> <PUBCHEM_IUPAC_TRADITIONAL_NAME>
trichlorobismuthine

> <PUBCHEM_IUPAC_INCHI>
InChI=1S/Bi.3ClH/h;3*1H/q+3;;;/p-3

> <PUBCHEM_IUPAC_INCHIKEY>
JHXKRIRFYBPWGE-UHFFFAOYSA-K

> <PUBCHEM_EXACT_MASS>
313.88696

> <PUBCHEM_MOLECULAR_FORMULA>
BiCl3

> <PUBCHEM_MOLECULAR_WEIGHT>
315.33

> <PUBCHEM_SMILES>
Cl[Bi](Cl)Cl

> <PUBCHEM_CONNECTIVITY_SMILES>
Cl[Bi](Cl)Cl

> <PUBCHEM_CACTVS_TPSA>
0

> <PUBCHEM_MONOISOTOPIC_WEIGHT>
313.88696

> <PUBCHEM_TOTAL_CHARGE>
0

> <PUBCHEM_HEAVY_ATOM_COUNT>
4

> <PUBCHEM_ATOM_DEF_STEREO_COUNT>
0

> <PUBCHEM_ATOM_UDEF_STEREO_COUNT>
0

> <PUBCHEM_BOND_DEF_STEREO_COUNT>
0

> <PUBCHEM_BOND_UDEF_STEREO_COUNT>
0

> <PUBCHEM_ISOTOPIC_ATOM_COUNT>
0

> <PUBCHEM_COMPONENT_COUNT>
1

> <PUBCHEM_CACTVS_TAUTO_COUNT>
-1

> <PUBCHEM_COORDINATE_TYPE>
1
5
255

$$$$
