159719
  -OEChem-08152604242D

  6  0  0     0  0  0  0  0  0999 V2000
    3.3660    1.0000    0.0000 Bi  0  1  0  0  0  0  0  0  0  0  0  0
    3.1160    3.5000    0.0000 V   0  0  0  0  0  0  0  0  0  0  0  0
    4.2321    1.5000    0.0000 O   0  6  0  0  0  0  0  0  0  0  0  0
    2.5000    1.5000    0.0000 O   0  6  0  0  0  0  0  0  0  0  0  0
    3.3660    0.0000    0.0000 O   0  6  0  0  0  0  0  0  0  0  0  0
    0.0000    1.7500    0.0000 O   0  6  0  0  0  0  0  0  0  0  0  0
M  CHG  5   1   3   3  -2   4  -2   5  -2   6  -2
M  END
> <PUBCHEM_COMPOUND_CID>
159719

> <PUBCHEM_COMPOUND_CANONICALIZED>
1

> <PUBCHEM_CACTVS_COMPLEXITY>
0

> <PUBCHEM_CACTVS_HBOND_ACCEPTOR>
4

> <PUBCHEM_CACTVS_HBOND_DONOR>
0

> <PUBCHEM_CACTVS_ROTATABLE_BOND>
0

> <PUBCHEM_CACTVS_SUBSKEYS>
AAADcQAAOAAAAAEAAAAAACAAAAAAAAAAAAAAAAAAAAAAAAAAAAAAAAAAAAAAAAAAAAAAAAAAAAAAAAAAAAAAAAAAAAAAAAAAAAAAAAAAAAAAAAAAAAAAAAAAAAAAAAAAAAAAAAAAAAAAAAAAAAAAAAAAAA==

> <PUBCHEM_IUPAC_OPENEYE_NAME>
bismuth;tetrakis(oxygen(2-));vanadium

> <PUBCHEM_IUPAC_CAS_NAME>
bismuth;tetrakis(oxygen(2-));vanadium

> <PUBCHEM_IUPAC_NAME_MARKUP>
bismuth;tetrakis(oxygen(2-));vanadium

> <PUBCHEM_IUPAC_NAME>
bismuth;tetrakis(oxygen(2-));vanadium

> <PUBCHEM_IUPAC_SYSTEMATIC_NAME>
bismuth;tetrakis(oxygen(2-));vanadium

> <PUBCHEM_IUPAC_TRADITIONAL_NAME>
bismuth;tetrakis(oxygen(2-));vanadium

> <PUBCHEM_IUPAC_INCHI>
InChI=1S/Bi.4O.V/q+3;4*-2;

> <PUBCHEM_IUPAC_INCHIKEY>
HUUOUJVWIOKBMD-UHFFFAOYSA-N

> <PUBCHEM_EXACT_MASS>
323.90401

> <PUBCHEM_MOLECULAR_FORMULA>
BiO4V-5

> <PUBCHEM_MOLECULAR_WEIGHT>
323.919

> <PUBCHEM_SMILES>
[O-2].[O-2].[O-2].[O-2].[V].[Bi+3]

> <PUBCHEM_CONNECTIVITY_SMILES>
[O-2].[O-2].[O-2].[O-2].[V].[Bi+3]

> <PUBCHEM_CACTVS_TPSA>
4

> <PUBCHEM_MONOISOTOPIC_WEIGHT>
323.90401

> <PUBCHEM_TOTAL_CHARGE>
-5

> <PUBCHEM_HEAVY_ATOM_COUNT>
6

> <PUBCHEM_ATOM_DEF_STEREO_COUNT>
0

> <PUBCHEM_ATOM_UDEF_STEREO_COUNT>
0

> <PUBCHEM_BOND_DEF_STEREO_COUNT>
0

> <PUBCHEM_BOND_UDEF_STEREO_COUNT>
0

> <PUBCHEM_ISOTOPIC_ATOM_COUNT>
0

> <PUBCHEM_COMPONENT_COUNT>
6

> <PUBCHEM_CACTVS_TAUTO_COUNT>
-1

> <PUBCHEM_COORDINATE_TYPE>
1
5
255

$$$$
