73415769
  -OEChem-08152604412D

 19 17  0     0  0  0  0  0  0999 V2000
    7.5309   -0.1550    0.0000 Bi  0  1  0  0  0  0  0  0  0  0  0  0
    5.1350    1.8450    0.0000 O   0  0  0  0  0  0  0  0  0  0  0  0
    6.9473   -0.9597    0.0000 O   0  5  0  0  0  0  0  0  0  0  0  0
    6.9473    0.6497    0.0000 O   0  5  0  0  0  0  0  0  0  0  0  0
    2.5369   -0.6550    0.0000 O   0  0  0  0  0  0  0  0  0  0  0  0
    3.4030   -2.1550    0.0000 O   0  0  0  0  0  0  0  0  0  0  0  0
    8.5309   -0.1550    0.0000 O   0  5  0  0  0  0  0  0  0  0  0  0
    4.2690   -0.6550    0.0000 C   0  0  0  0  0  0  0  0  0  0  0  0
    4.2690    0.3450    0.0000 C   0  0  0  0  0  0  0  0  0  0  0  0
    5.1350   -1.1550    0.0000 C   0  0  0  0  0  0  0  0  0  0  0  0
    5.1350    0.8450    0.0000 C   0  0  0  0  0  0  0  0  0  0  0  0
    6.0010   -0.6550    0.0000 C   0  0  0  0  0  0  0  0  0  0  0  0
    6.0010    0.3450    0.0000 C   0  0  0  0  0  0  0  0  0  0  0  0
    3.4030   -1.1550    0.0000 C   0  0  0  0  0  0  0  0  0  0  0  0
    3.7321    0.6550    0.0000 H   0  0  0  0  0  0  0  0  0  0  0  0
    5.1350   -1.7750    0.0000 H   0  0  0  0  0  0  0  0  0  0  0  0
    4.5981    2.1550    0.0000 H   0  0  0  0  0  0  0  0  0  0  0  0
    2.0000   -0.9650    0.0000 H   0  0  0  0  0  0  0  0  0  0  0  0
    8.8409   -0.6919    0.0000 H   0  0  0  0  0  0  0  0  0  0  0  0
  2 11  1  0  0  0  0
  2 17  1  0  0  0  0
  3 12  1  0  0  0  0
  4 13  1  0  0  0  0
  5 14  1  0  0  0  0
  5 18  1  0  0  0  0
  6 14  2  0  0  0  0
  7 19  1  0  0  0  0
  8  9  2  0  0  0  0
  8 10  1  0  0  0  0
  8 14  1  0  0  0  0
  9 11  1  0  0  0  0
  9 15  1  0  0  0  0
 10 12  2  0  0  0  0
 10 16  1  0  0  0  0
 11 13  2  0  0  0  0
 12 13  1  0  0  0  0
M  CHG  4   1   3   3  -1   4  -1   7  -1
M  END
> <PUBCHEM_COMPOUND_CID>
73415769

> <PUBCHEM_COMPOUND_CANONICALIZED>
1

> <PUBCHEM_CACTVS_COMPLEXITY>
181

> <PUBCHEM_CACTVS_HBOND_ACCEPTOR>
6

> <PUBCHEM_CACTVS_HBOND_DONOR>
3

> <PUBCHEM_CACTVS_ROTATABLE_BOND>
1

> <PUBCHEM_CACTVS_SUBSKEYS>
AAADcYBgOAAAAAAAAAAAACAAAAAAAAAAAAAwAAAAAAAAAAABAAAAGgAACAAADASAmAAwDoAAAgCIAiDSCAACAAAkIAAAiAEGiMgJJzKCFRKAcQElwBUJmYfK7DTOIAABCAAAQABAAAIQAACAAAAAAAAAAA==

> <PUBCHEM_IUPAC_OPENEYE_NAME>
bismuth;5-carboxy-3-hydroxy-benzene-1,2-diolate;hydroxide

> <PUBCHEM_IUPAC_CAS_NAME>
bismuth;5-carboxy-3-hydroxybenzene-1,2-diolate;hydroxide

> <PUBCHEM_IUPAC_NAME_MARKUP>
bismuth;5-carboxy-3-hydroxybenzene-1,2-diolate;hydroxide

> <PUBCHEM_IUPAC_NAME>
bismuth;5-carboxy-3-hydroxybenzene-1,2-diolate;hydroxide

> <PUBCHEM_IUPAC_SYSTEMATIC_NAME>
bismuth;5-carboxy-3-oxidanyl-benzene-1,2-diolate;hydroxide

> <PUBCHEM_IUPAC_TRADITIONAL_NAME>
bismuth;5-carboxy-3-hydroxy-benzene-1,2-diolate;hydroxide

> <PUBCHEM_IUPAC_INCHI>
InChI=1S/C7H6O5.Bi.H2O/c8-4-1-3(7(11)12)2-5(9)6(4)10;;/h1-2,8-10H,(H,11,12);;1H2/q;+3;/p-3

> <PUBCHEM_IUPAC_INCHIKEY>
JAONZGLTYYUPCT-UHFFFAOYSA-K

> <PUBCHEM_EXACT_MASS>
393.98901

> <PUBCHEM_MOLECULAR_FORMULA>
C7H5BiO6

> <PUBCHEM_MOLECULAR_WEIGHT>
394.09

> <PUBCHEM_SMILES>
C1=C(C=C(C(=C1O)[O-])[O-])C(=O)O.[OH-].[Bi+3]

> <PUBCHEM_CONNECTIVITY_SMILES>
C1=C(C=C(C(=C1O)[O-])[O-])C(=O)O.[OH-].[Bi+3]

> <PUBCHEM_CACTVS_TPSA>
105

> <PUBCHEM_MONOISOTOPIC_WEIGHT>
393.98901

> <PUBCHEM_TOTAL_CHARGE>
0

> <PUBCHEM_HEAVY_ATOM_COUNT>
14

> <PUBCHEM_ATOM_DEF_STEREO_COUNT>
0

> <PUBCHEM_ATOM_UDEF_STEREO_COUNT>
0

> <PUBCHEM_BOND_DEF_STEREO_COUNT>
0

> <PUBCHEM_BOND_UDEF_STEREO_COUNT>
0

> <PUBCHEM_ISOTOPIC_ATOM_COUNT>
0

> <PUBCHEM_COMPONENT_COUNT>
3

> <PUBCHEM_CACTVS_TAUTO_COUNT>
-1

> <PUBCHEM_COORDINATE_TYPE>
1
5
255

> <PUBCHEM_BONDANNOTATIONS>
10  12  8
11  13  8
12  13  8
8  10  8
8  9  8
9  11  8

$$$$
