9839429
  -OEChem-08152604222D

  6  4  0     0  0  0  0  0  0999 V2000
    2.0000   -1.0000    0.0000 Bi  0  1  0  0  0  0  0  0  0  0  0  0
    3.0000    0.0000    0.0000 P   0  0  0  0  0  0  0  0  0  0  0  0
    2.0000    0.0000    0.0000 O   0  5  0  0  0  0  0  0  0  0  0  0
    3.0000   -1.0000    0.0000 O   0  5  0  0  0  0  0  0  0  0  0  0
    4.0000   -0.0000    0.0000 O   0  5  0  0  0  0  0  0  0  0  0  0
    3.0000    1.0000    0.0000 O   0  0  0  0  0  0  0  0  0  0  0  0
  2  3  1  0  0  0  0
  2  4  1  0  0  0  0
  2  5  1  0  0  0  0
  2  6  2  0  0  0  0
M  CHG  4   1   3   3  -1   4  -1   5  -1
M  END
> <PUBCHEM_COMPOUND_CID>
9839429

> <PUBCHEM_COMPOUND_CANONICALIZED>
1

> <PUBCHEM_CACTVS_COMPLEXITY>
36.8

> <PUBCHEM_CACTVS_HBOND_ACCEPTOR>
4

> <PUBCHEM_CACTVS_HBOND_DONOR>
0

> <PUBCHEM_CACTVS_ROTATABLE_BOND>
0

> <PUBCHEM_CACTVS_SUBSKEYS>
AAADcQAAOAIAAAAAAAAAACAAAAAAAAAAAAAAAAAAAAAAAAAAAAAAAAAAACAAAAAAAAAAAAAAABAAQAAAAIAAAAAAAAAAAAAAAAAAAAAAAAAAAAAAAAAAAAAAAAAAAAAAAAAAAAAAAAAAAAAAAAAAAAAAAA==

> <PUBCHEM_IUPAC_OPENEYE_NAME>
bismuth phosphate

> <PUBCHEM_IUPAC_CAS_NAME>
bismuth phosphate

> <PUBCHEM_IUPAC_NAME_MARKUP>
bismuth phosphate

> <PUBCHEM_IUPAC_NAME>
bismuth phosphate

> <PUBCHEM_IUPAC_SYSTEMATIC_NAME>
bismuth phosphate

> <PUBCHEM_IUPAC_TRADITIONAL_NAME>
bismuth phosphate

> <PUBCHEM_IUPAC_INCHI>
InChI=1S/Bi.H3O4P/c;1-5(2,3)4/h;(H3,1,2,3,4)/q+3;/p-3

> <PUBCHEM_IUPAC_INCHIKEY>
SFOQXWSZZPWNCL-UHFFFAOYSA-K

> <PUBCHEM_EXACT_MASS>
303.93382

> <PUBCHEM_MOLECULAR_FORMULA>
BiO4P

> <PUBCHEM_MOLECULAR_WEIGHT>
303.952

> <PUBCHEM_SMILES>
[O-]P(=O)([O-])[O-].[Bi+3]

> <PUBCHEM_CONNECTIVITY_SMILES>
[O-]P(=O)([O-])[O-].[Bi+3]

> <PUBCHEM_CACTVS_TPSA>
86.3

> <PUBCHEM_MONOISOTOPIC_WEIGHT>
303.93382

> <PUBCHEM_TOTAL_CHARGE>
0

> <PUBCHEM_HEAVY_ATOM_COUNT>
6

> <PUBCHEM_ATOM_DEF_STEREO_COUNT>
0

> <PUBCHEM_ATOM_UDEF_STEREO_COUNT>
0

> <PUBCHEM_BOND_DEF_STEREO_COUNT>
0

> <PUBCHEM_BOND_UDEF_STEREO_COUNT>
0

> <PUBCHEM_ISOTOPIC_ATOM_COUNT>
0

> <PUBCHEM_COMPONENT_COUNT>
2

> <PUBCHEM_CACTVS_TAUTO_COUNT>
-1

> <PUBCHEM_COORDINATE_TYPE>
1
5
255

$$$$
