16211214
  -OEChem-08152607362D

 43 32  0     0  0  0  0  0  0999 V2000
   13.1771    5.0000    0.0000 Na  0  3  0  0  0  0  0  0  0  0  0  0
    6.1477    6.3844    0.0000 Na  0  3  0  0  0  0  0  0  0  0  0  0
    9.4258    8.3386    0.0000 O   0  0  0  0  0  0  0  0  0  0  0  0
    8.1291    7.0449    0.0000 O   0  0  0  0  0  0  0  0  0  0  0  0
   11.5940    7.1583    0.0000 O   0  0  0  0  0  0  0  0  0  0  0  0
    8.6825    5.5244    0.0000 O   0  0  0  0  0  0  0  0  0  0  0  0
   11.1752    5.5954    0.0000 O   0  0  0  0  0  0  0  0  0  0  0  0
    6.9138    5.7416    0.0000 O   0  5  0  0  0  0  0  0  0  0  0  0
   12.9183    5.9659    0.0000 O   0  5  0  0  0  0  0  0  0  0  0  0
   15.7141    7.6693    0.0000 O   0  0  0  0  0  0  0  0  0  0  0  0
    0.5369    5.1693    0.0000 O   0  0  0  0  0  0  0  0  0  0  0  0
    9.6624    0.0000    0.0000 O   0  0  0  0  0  0  0  0  0  0  0  0
   15.7141    5.1693    0.0000 O   0  0  0  0  0  0  0  0  0  0  0  0
    0.5369    7.6693    0.0000 O   0  0  0  0  0  0  0  0  0  0  0  0
    3.6108    7.6693    0.0000 O   0  0  0  0  0  0  0  0  0  0  0  0
    9.6624    2.5000    0.0000 O   0  0  0  0  0  0  0  0  0  0  0  0
    9.6624   10.3386    0.0000 O   0  0  0  0  0  0  0  0  0  0  0  0
    9.6624   12.8386    0.0000 O   0  0  0  0  0  0  0  0  0  0  0  0
    3.6108    5.1693    0.0000 O   0  0  0  0  0  0  0  0  0  0  0  0
   10.1624    7.3560    0.0000 B   0  0  0  0  0  0  0  0  0  0  0  0
    9.9035    6.3901    0.0000 B   0  0  0  0  0  0  0  0  0  0  0  0
    7.8535    6.0836    0.0000 B   0  0  0  0  0  0  0  0  0  0  0  0
   11.9524    6.2248    0.0000 B   0  0  0  0  0  0  0  0  0  0  0  0
   16.2510    7.9793    0.0000 H   0  0  0  0  0  0  0  0  0  0  0  0
   15.1771    7.9793    0.0000 H   0  0  0  0  0  0  0  0  0  0  0  0
    1.0739    5.4793    0.0000 H   0  0  0  0  0  0  0  0  0  0  0  0
    0.0000    5.4793    0.0000 H   0  0  0  0  0  0  0  0  0  0  0  0
   10.1994    0.3100    0.0000 H   0  0  0  0  0  0  0  0  0  0  0  0
    9.1255    0.3100    0.0000 H   0  0  0  0  0  0  0  0  0  0  0  0
   16.2510    5.4793    0.0000 H   0  0  0  0  0  0  0  0  0  0  0  0
   15.1771    5.4793    0.0000 H   0  0  0  0  0  0  0  0  0  0  0  0
    1.0739    7.9793    0.0000 H   0  0  0  0  0  0  0  0  0  0  0  0
    0.0000    7.9793    0.0000 H   0  0  0  0  0  0  0  0  0  0  0  0
    4.1477    7.9793    0.0000 H   0  0  0  0  0  0  0  0  0  0  0  0
    3.0739    7.9793    0.0000 H   0  0  0  0  0  0  0  0  0  0  0  0
   10.1994    2.8100    0.0000 H   0  0  0  0  0  0  0  0  0  0  0  0
    9.1255    2.8100    0.0000 H   0  0  0  0  0  0  0  0  0  0  0  0
   10.1994   10.6486    0.0000 H   0  0  0  0  0  0  0  0  0  0  0  0
    9.1255   10.6486    0.0000 H   0  0  0  0  0  0  0  0  0  0  0  0
   10.1994   13.1486    0.0000 H   0  0  0  0  0  0  0  0  0  0  0  0
    9.1255   13.1486    0.0000 H   0  0  0  0  0  0  0  0  0  0  0  0
    4.1477    5.4793    0.0000 H   0  0  0  0  0  0  0  0  0  0  0  0
    3.0739    5.4793    0.0000 H   0  0  0  0  0  0  0  0  0  0  0  0
  3 20  1  0  0  0  0
  3 21  1  0  0  0  0
  4 20  1  0  0  0  0
  4 22  1  0  0  0  0
  5 20  1  0  0  0  0
  5 23  1  0  0  0  0
  6 21  1  0  0  0  0
  6 22  1  0  0  0  0
  7 21  1  0  0  0  0
  7 23  1  0  0  0  0
  8 22  1  0  0  0  0
  9 23  1  0  0  0  0
 10 24  1  0  0  0  0
 10 25  1  0  0  0  0
 11 26  1  0  0  0  0
 11 27  1  0  0  0  0
 12 28  1  0  0  0  0
 12 29  1  0  0  0  0
 13 30  1  0  0  0  0
 13 31  1  0  0  0  0
 14 32  1  0  0  0  0
 14 33  1  0  0  0  0
 15 34  1  0  0  0  0
 15 35  1  0  0  0  0
 16 36  1  0  0  0  0
 16 37  1  0  0  0  0
 17 38  1  0  0  0  0
 17 39  1  0  0  0  0
 18 40  1  0  0  0  0
 18 41  1  0  0  0  0
 19 42  1  0  0  0  0
 19 43  1  0  0  0  0
M  CHG  4   1   1   2   1   8  -1   9  -1
M  END
> <PUBCHEM_COMPOUND_CID>
16211214

> <PUBCHEM_COMPOUND_CANONICALIZED>
1

> <PUBCHEM_CACTVS_COMPLEXITY>
121

> <PUBCHEM_CACTVS_HBOND_ACCEPTOR>
17

> <PUBCHEM_CACTVS_HBOND_DONOR>
10

> <PUBCHEM_CACTVS_ROTATABLE_BOND>
0

> <PUBCHEM_CACTVS_SUBSKEYS>
AAADceOAPjAAAAAAAAAAAAAAAAAAAAAAAAAkSAAAAAASAAAAAAAIAAAACAAAAAAAAAAAAAAAAAAAAAAAAAAAAAAAAAAAAAAAAAAAAAAAAAAAAAAAAAAAAAAAAAAAAAAAAAAAAAAAAAAAAAAAAAAAAAAAAA==

> <PUBCHEM_IUPAC_OPENEYE_NAME>
disodium;3,7-dioxido-2,4,6,8,9-pentaoxa-1,3,5,7-tetraborabicyclo[3.3.1]nonane;decahydrate

> <PUBCHEM_IUPAC_CAS_NAME>
disodium;3,7-dioxido-2,4,6,8,9-pentaoxa-1,3,5,7-tetraborabicyclo[3.3.1]nonane;decahydrate

> <PUBCHEM_IUPAC_NAME_MARKUP>
disodium;3,7-dioxido-2,4,6,8,9-pentaoxa-1,3,5,7-tetraborabicyclo[3.3.1]nonane;decahydrate

> <PUBCHEM_IUPAC_NAME>
disodium;3,7-dioxido-2,4,6,8,9-pentaoxa-1,3,5,7-tetraborabicyclo[3.3.1]nonane;decahydrate

> <PUBCHEM_IUPAC_SYSTEMATIC_NAME>
disodium;3,7-bis(oxidanidyl)-2,4,6,8,9-pentaoxa-1,3,5,7-tetraborabicyclo[3.3.1]nonane;decahydrate

> <PUBCHEM_IUPAC_TRADITIONAL_NAME>
disodium;3,7-dioxido-2,4,6,8,9-pentaoxa-1,3,5,7-tetraborabicyclo[3.3.1]nonane;decahydrate

> <PUBCHEM_IUPAC_INCHI>
InChI=1S/B4O7.2Na.10H2O/c5-1-7-3-9-2(6)10-4(8-1)11-3;;;;;;;;;;;;/h;;;10*1H2/q-2;2*+1;;;;;;;;;;

> <PUBCHEM_IUPAC_INCHIKEY>
CDMADVZSLOHIFP-UHFFFAOYSA-N

> <PUBCHEM_EXACT_MASS>
382.0868084

> <PUBCHEM_MOLECULAR_FORMULA>
B4H20Na2O17

> <PUBCHEM_MOLECULAR_WEIGHT>
381.4

> <PUBCHEM_SMILES>
B1(OB2OB(OB(O1)O2)[O-])[O-].O.O.O.O.O.O.O.O.O.O.[Na+].[Na+]

> <PUBCHEM_CONNECTIVITY_SMILES>
B1(OB2OB(OB(O1)O2)[O-])[O-].O.O.O.O.O.O.O.O.O.O.[Na+].[Na+]

> <PUBCHEM_CACTVS_TPSA>
102

> <PUBCHEM_MONOISOTOPIC_WEIGHT>
382.0868084

> <PUBCHEM_TOTAL_CHARGE>
0

> <PUBCHEM_HEAVY_ATOM_COUNT>
23

> <PUBCHEM_ATOM_DEF_STEREO_COUNT>
0

> <PUBCHEM_ATOM_UDEF_STEREO_COUNT>
0

> <PUBCHEM_BOND_DEF_STEREO_COUNT>
0

> <PUBCHEM_BOND_UDEF_STEREO_COUNT>
0

> <PUBCHEM_ISOTOPIC_ATOM_COUNT>
0

> <PUBCHEM_COMPONENT_COUNT>
13

> <PUBCHEM_CACTVS_TAUTO_COUNT>
-1

> <PUBCHEM_COORDINATE_TYPE>
1
5
255

$$$$
