83546
  -OEChem-08152604472D

  4  3  0     0  0  0  0  0  0999 V2000
    3.7321    0.7500    0.0000 I   0  0  0  0  0  0  0  0  0  0  0  0
    2.0000    0.7500    0.0000 I   0  0  0  0  0  0  0  0  0  0  0  0
    2.8660   -0.7500    0.0000 I   0  0  0  0  0  0  0  0  0  0  0  0
    2.8660    0.2500    0.0000 B   0  0  0  0  0  0  0  0  0  0  0  0
  1  4  1  0  0  0  0
  2  4  1  0  0  0  0
  3  4  1  0  0  0  0
M  END
> <PUBCHEM_COMPOUND_CID>
83546

> <PUBCHEM_COMPOUND_CANONICALIZED>
1

> <PUBCHEM_CACTVS_COMPLEXITY>
8

> <PUBCHEM_CACTVS_HBOND_ACCEPTOR>
0

> <PUBCHEM_CACTVS_HBOND_DONOR>
0

> <PUBCHEM_CACTVS_ROTATABLE_BOND>
0

> <PUBCHEM_CACTVS_SUBSKEYS>
AAADcQIAAAAAAwAAAAAAAAAAAAAAAAAAAAAAAAAAAAAAAAAAAAAAAAAAAAAAAAAAAAAAAAAAAAAAAAAAAAAAAAAAAAAAAAAAAAAAAAAAAAAAAAAAAAAAAAAAAAAAAAAAAAAAAAAAAAAAAAAAAAAAAAAAAA==

> <PUBCHEM_IUPAC_OPENEYE_NAME>
triiodoborane

> <PUBCHEM_IUPAC_CAS_NAME>
triiodoborane

> <PUBCHEM_IUPAC_NAME_MARKUP>
triiodoborane

> <PUBCHEM_IUPAC_NAME>
triiodoborane

> <PUBCHEM_IUPAC_SYSTEMATIC_NAME>
tris(iodanyl)borane

> <PUBCHEM_IUPAC_TRADITIONAL_NAME>
triiodoborane

> <PUBCHEM_IUPAC_INCHI>
InChI=1S/BI3/c2-1(3)4

> <PUBCHEM_IUPAC_INCHIKEY>
YMEKEHSRPZAOGO-UHFFFAOYSA-N

> <PUBCHEM_EXACT_MASS>
391.7227

> <PUBCHEM_MOLECULAR_FORMULA>
BI3

> <PUBCHEM_MOLECULAR_WEIGHT>
391.53

> <PUBCHEM_SMILES>
B(I)(I)I

> <PUBCHEM_CONNECTIVITY_SMILES>
B(I)(I)I

> <PUBCHEM_CACTVS_TPSA>
0

> <PUBCHEM_MONOISOTOPIC_WEIGHT>
391.7227

> <PUBCHEM_TOTAL_CHARGE>
0

> <PUBCHEM_HEAVY_ATOM_COUNT>
4

> <PUBCHEM_ATOM_DEF_STEREO_COUNT>
0

> <PUBCHEM_ATOM_UDEF_STEREO_COUNT>
0

> <PUBCHEM_BOND_DEF_STEREO_COUNT>
0

> <PUBCHEM_BOND_UDEF_STEREO_COUNT>
0

> <PUBCHEM_ISOTOPIC_ATOM_COUNT>
0

> <PUBCHEM_COMPONENT_COUNT>
1

> <PUBCHEM_CACTVS_TAUTO_COUNT>
-1

> <PUBCHEM_COORDINATE_TYPE>
1
5
255

$$$$
