10285774
  -OEChem-08152607042D

  2  1  0     0  0  0  0  0  0999 V2000
    2.0000    0.0000    0.0000 As  0  0  0  0  0  1  0  0  0  0  0  0
    3.0000    0.0000    0.0000 B   0  0  0  0  0  1  0  0  0  0  0  0
  1  2  1  0  0  0  0
M  END
> <PUBCHEM_COMPOUND_CID>
10285774

> <PUBCHEM_COMPOUND_CANONICALIZED>
1

> <PUBCHEM_CACTVS_COMPLEXITY>
2

> <PUBCHEM_CACTVS_HBOND_ACCEPTOR>
0

> <PUBCHEM_CACTVS_HBOND_DONOR>
0

> <PUBCHEM_CACTVS_ROTATABLE_BOND>
0

> <PUBCHEM_CACTVS_SUBSKEYS>
AAADcQIAAAAAAAAAQAAAAAAAAAAAAAAAAAAAAAAAAAAAAAAAAAAAAAAAAAAAAAAAAAAAAAAAAAAAAAAAAAAAAAAAAAAAAAAAAAAAAAAAAAAAAAAAAAAAAAAAAAAAAAAAAAAAAAAAAAAAAAAAAAAAAAAAAA==

> <PUBCHEM_IUPAC_OPENEYE_NAME>
lambda1-arsanylboron

> <PUBCHEM_IUPAC_CAS_NAME>
lambda1-arsinylboron

> <PUBCHEM_IUPAC_NAME_MARKUP>
&lambda;<SUP>1</SUP>-arsanylboron

> <PUBCHEM_IUPAC_NAME>
lambda1-arsanylboron

> <PUBCHEM_IUPAC_SYSTEMATIC_NAME>
lambda1-arsanylboron

> <PUBCHEM_IUPAC_TRADITIONAL_NAME>
lambda1-arsinylboron

> <PUBCHEM_IUPAC_INCHI>
InChI=1S/AsB/c1-2

> <PUBCHEM_IUPAC_INCHIKEY>
DBKNIEBLJMAJHX-UHFFFAOYSA-N

> <PUBCHEM_EXACT_MASS>
85.930900

> <PUBCHEM_MOLECULAR_FORMULA>
AsB

> <PUBCHEM_MOLECULAR_WEIGHT>
85.74

> <PUBCHEM_SMILES>
[B][As]

> <PUBCHEM_CONNECTIVITY_SMILES>
[B][As]

> <PUBCHEM_CACTVS_TPSA>
0

> <PUBCHEM_MONOISOTOPIC_WEIGHT>
85.930900

> <PUBCHEM_TOTAL_CHARGE>
0

> <PUBCHEM_HEAVY_ATOM_COUNT>
2

> <PUBCHEM_ATOM_DEF_STEREO_COUNT>
0

> <PUBCHEM_ATOM_UDEF_STEREO_COUNT>
0

> <PUBCHEM_BOND_DEF_STEREO_COUNT>
0

> <PUBCHEM_BOND_UDEF_STEREO_COUNT>
0

> <PUBCHEM_ISOTOPIC_ATOM_COUNT>
0

> <PUBCHEM_COMPONENT_COUNT>
1

> <PUBCHEM_CACTVS_TAUTO_COUNT>
-1

> <PUBCHEM_COORDINATE_TYPE>
1
5
255

$$$$
