88409
  -OEChem-08152604392D

  2  1  0     0  0  0  0  0  0999 V2000
    3.0000    0.0000    0.0000 P   0  0  0  0  0  0  0  0  0  0  0  0
    2.0000    0.0000    0.0000 B   0  0  0  0  0  0  0  0  0  0  0  0
  1  2  3  0  0  0  0
M  END
> <PUBCHEM_COMPOUND_CID>
88409

> <PUBCHEM_COMPOUND_CANONICALIZED>
1

> <PUBCHEM_CACTVS_COMPLEXITY>
10

> <PUBCHEM_CACTVS_HBOND_ACCEPTOR>
0

> <PUBCHEM_CACTVS_HBOND_DONOR>
0

> <PUBCHEM_CACTVS_ROTATABLE_BOND>
0

> <PUBCHEM_CACTVS_SUBSKEYS>
AAADcQIAAAIAAAAAAAAAAAAAAAAAAAAAAAAAAAAAAAAAAAAAAAABAAAAAAAAAAAAAAAAAAAAAAAAAAAAAAAAAAAAAAAAAAAAAAAAAAAAAAAAAAAAAAAAAAAAAAAAAAAAAAAAAAAAAAAAAAAAAAAAAAAAAA==

> <PUBCHEM_IUPAC_OPENEYE_NAME>
boranylidynephosphane

> <PUBCHEM_IUPAC_CAS_NAME>
boranylidynephosphine

> <PUBCHEM_IUPAC_NAME_MARKUP>
boranylidynephosphane

> <PUBCHEM_IUPAC_NAME>
boranylidynephosphane

> <PUBCHEM_IUPAC_SYSTEMATIC_NAME>
boranylidynephosphane

> <PUBCHEM_IUPAC_TRADITIONAL_NAME>
borylidynephosphine

> <PUBCHEM_IUPAC_INCHI>
InChI=1S/BP/c1-2

> <PUBCHEM_IUPAC_INCHIKEY>
FFBGYFUYJVKRNV-UHFFFAOYSA-N

> <PUBCHEM_EXACT_MASS>
41.9830672

> <PUBCHEM_MOLECULAR_FORMULA>
BP

> <PUBCHEM_MOLECULAR_WEIGHT>
41.79

> <PUBCHEM_SMILES>
B#P

> <PUBCHEM_CONNECTIVITY_SMILES>
B#P

> <PUBCHEM_CACTVS_TPSA>
0

> <PUBCHEM_MONOISOTOPIC_WEIGHT>
41.9830672

> <PUBCHEM_TOTAL_CHARGE>
0

> <PUBCHEM_HEAVY_ATOM_COUNT>
2

> <PUBCHEM_ATOM_DEF_STEREO_COUNT>
0

> <PUBCHEM_ATOM_UDEF_STEREO_COUNT>
0

> <PUBCHEM_BOND_DEF_STEREO_COUNT>
0

> <PUBCHEM_BOND_UDEF_STEREO_COUNT>
0

> <PUBCHEM_ISOTOPIC_ATOM_COUNT>
0

> <PUBCHEM_COMPONENT_COUNT>
1

> <PUBCHEM_CACTVS_TAUTO_COUNT>
-1

> <PUBCHEM_COORDINATE_TYPE>
1
5
255

$$$$
