5460627
  -OEChem-08152605362D

  2  1  0     0  0  0  0  0  0999 V2000
    2.0000    0.0000    0.0000 Br  0  0  0  0  0  0  0  0  0  0  0  0
    3.0000    0.0000    0.0000 O   0  4  0  0  0  0  0  0  0  0  0  0
  1  2  1  0  0  0  0
M  RAD  1   2   2
M  END
> <PUBCHEM_COMPOUND_CID>
5460627

> <PUBCHEM_COMPOUND_CANONICALIZED>
1

> <PUBCHEM_CACTVS_COMPLEXITY>
2

> <PUBCHEM_CACTVS_HBOND_ACCEPTOR>
0

> <PUBCHEM_CACTVS_HBOND_DONOR>
0

> <PUBCHEM_CACTVS_ROTATABLE_BOND>
0

> <PUBCHEM_CACTVS_SUBSKEYS>
AAADcQAAIAAAEAAAAAAAAAAAAAAAAAAAAAAAAAAAAAAAAAAAAAAAAAAAAAAAAAAAAAAAAAAAAAAAAAAAAAAAAAAAAAAAAAAAAAAAAAAAAAAAAAAAAAAAAAAAAAAAAAAAAAAAAAAAAAAAAAAAAAAAAAAAAA==

> <PUBCHEM_IUPAC_OPENEYE_NAME>
hypobromous acid

> <PUBCHEM_IUPAC_CAS_NAME>
hypobromous acid

> <PUBCHEM_IUPAC_NAME_MARKUP>
hypobromous acid

> <PUBCHEM_IUPAC_NAME>
hypobromous acid

> <PUBCHEM_IUPAC_SYSTEMATIC_NAME>
hypobromous acid

> <PUBCHEM_IUPAC_TRADITIONAL_NAME>
hypobromous acid

> <PUBCHEM_IUPAC_INCHI>
InChI=1S/BrO/c1-2

> <PUBCHEM_IUPAC_INCHIKEY>
FMSOWMGJJIHFTQ-UHFFFAOYSA-N

> <PUBCHEM_XLOGP3_AA>
0.5

> <PUBCHEM_EXACT_MASS>
94.91325

> <PUBCHEM_MOLECULAR_FORMULA>
BrO

> <PUBCHEM_MOLECULAR_WEIGHT>
95.90

> <PUBCHEM_SMILES>
[O]Br

> <PUBCHEM_CONNECTIVITY_SMILES>
[O]Br

> <PUBCHEM_CACTVS_TPSA>
1

> <PUBCHEM_MONOISOTOPIC_WEIGHT>
94.91325

> <PUBCHEM_TOTAL_CHARGE>
0

> <PUBCHEM_HEAVY_ATOM_COUNT>
2

> <PUBCHEM_ATOM_DEF_STEREO_COUNT>
0

> <PUBCHEM_ATOM_UDEF_STEREO_COUNT>
0

> <PUBCHEM_BOND_DEF_STEREO_COUNT>
0

> <PUBCHEM_BOND_UDEF_STEREO_COUNT>
0

> <PUBCHEM_ISOTOPIC_ATOM_COUNT>
0

> <PUBCHEM_COMPONENT_COUNT>
1

> <PUBCHEM_CACTVS_TAUTO_COUNT>
-1

> <PUBCHEM_COORDINATE_TYPE>
1
5
255

$$$$
