24594
  -OEChem-08152605132D

  4  3  0     0  0  0  0  0  0999 V2000
    3.0000   -0.5000    0.0000 Br  0  0  0  0  0  0  0  0  0  0  0  0
    3.0000    0.5000    0.0000 F   0  0  0  0  0  0  0  0  0  0  0  0
    2.0000   -0.5000    0.0000 F   0  0  0  0  0  0  0  0  0  0  0  0
    4.0000   -0.5000    0.0000 F   0  0  0  0  0  0  0  0  0  0  0  0
  1  2  1  0  0  0  0
  1  3  1  0  0  0  0
  1  4  1  0  0  0  0
M  END
> <PUBCHEM_COMPOUND_CID>
24594

> <PUBCHEM_COMPOUND_CANONICALIZED>
1

> <PUBCHEM_CACTVS_COMPLEXITY>
8

> <PUBCHEM_CACTVS_HBOND_ACCEPTOR>
3

> <PUBCHEM_CACTVS_HBOND_DONOR>
0

> <PUBCHEM_CACTVS_ROTATABLE_BOND>
0

> <PUBCHEM_CACTVS_SUBSKEYS>
AAADcQAAAYAAEAAAAAAAAAAAAAAAAAAAAAAAAAAAAAAAAAAAAAAAAAAAAAAAAAAAAAAAAAAAAAAAAAAAAAAAAAAAAAAAAAAAAAAAAAAAAAAAAAAAAAAAAAAAAAAAAAAAAAAAAAAAAAAAAAAAAAAAAAAAAA==

> <PUBCHEM_IUPAC_OPENEYE_NAME>
trifluoro-lambda3-bromane

> <PUBCHEM_IUPAC_CAS_NAME>
trifluoro-lambda3-bromane

> <PUBCHEM_IUPAC_NAME_MARKUP>
trifluoro-&lambda;<SUP>3</SUP>-bromane

> <PUBCHEM_IUPAC_NAME>
trifluoro-lambda3-bromane

> <PUBCHEM_IUPAC_SYSTEMATIC_NAME>
tris(fluoranyl)-lambda3-bromane

> <PUBCHEM_IUPAC_TRADITIONAL_NAME>
trifluoro-lambda3-bromane

> <PUBCHEM_IUPAC_INCHI>
InChI=1S/BrF3/c2-1(3)4

> <PUBCHEM_IUPAC_INCHIKEY>
FQFKTKUFHWNTBN-UHFFFAOYSA-N

> <PUBCHEM_XLOGP3_AA>
2.6

> <PUBCHEM_EXACT_MASS>
135.91355

> <PUBCHEM_MOLECULAR_FORMULA>
BrF3

> <PUBCHEM_MOLECULAR_WEIGHT>
136.90

> <PUBCHEM_SMILES>
FBr(F)F

> <PUBCHEM_CONNECTIVITY_SMILES>
FBr(F)F

> <PUBCHEM_CACTVS_TPSA>
0

> <PUBCHEM_MONOISOTOPIC_WEIGHT>
135.91355

> <PUBCHEM_TOTAL_CHARGE>
0

> <PUBCHEM_HEAVY_ATOM_COUNT>
4

> <PUBCHEM_ATOM_DEF_STEREO_COUNT>
0

> <PUBCHEM_ATOM_UDEF_STEREO_COUNT>
0

> <PUBCHEM_BOND_DEF_STEREO_COUNT>
0

> <PUBCHEM_BOND_UDEF_STEREO_COUNT>
0

> <PUBCHEM_ISOTOPIC_ATOM_COUNT>
0

> <PUBCHEM_COMPONENT_COUNT>
1

> <PUBCHEM_CACTVS_TAUTO_COUNT>
-1

> <PUBCHEM_COORDINATE_TYPE>
1
5
255

$$$$
