5460629
  -OEChem-08152607142D

  3  2  0     0  0  0  0  0  0999 V2000
    2.8660   -0.2500    0.0000 Br  0  0  0  0  0  0  0  0  0  0  0  0
    3.7321    0.2500    0.0000 O   0  0  0  0  0  0  0  0  0  0  0  0
    2.0000    0.2500    0.0000 O   0  4  0  0  0  0  0  0  0  0  0  0
  1  2  2  0  0  0  0
  1  3  1  0  0  0  0
M  RAD  1   3   2
M  END
> <PUBCHEM_COMPOUND_CID>
5460629

> <PUBCHEM_COMPOUND_CANONICALIZED>
1

> <PUBCHEM_CACTVS_COMPLEXITY>
7.5

> <PUBCHEM_CACTVS_HBOND_ACCEPTOR>
1

> <PUBCHEM_CACTVS_HBOND_DONOR>
0

> <PUBCHEM_CACTVS_ROTATABLE_BOND>
0

> <PUBCHEM_CACTVS_SUBSKEYS>
AAADcQAAMAAAEAAAAAAAAAAAAAAAAAAAAAAAAAAAAAAAAAAAAAAAAAAAAAAAAAAAAAAAAAAAAAAAAAAAAAAAAAAAAAAAAAAAAAAAAAAAAAAAAAAAAAAAAAAAAAAAAAAAAAAAAAAAAAAAAAAAAAAAAAAAAA==

> <PUBCHEM_IUPAC_OPENEYE_NAME>
bromous acid

> <PUBCHEM_IUPAC_CAS_NAME>
bromous acid

> <PUBCHEM_IUPAC_NAME_MARKUP>
bromous acid

> <PUBCHEM_IUPAC_NAME>
bromous acid

> <PUBCHEM_IUPAC_SYSTEMATIC_NAME>
bromous acid

> <PUBCHEM_IUPAC_TRADITIONAL_NAME>
bromous acid

> <PUBCHEM_IUPAC_INCHI>
InChI=1S/BrO2/c2-1-3

> <PUBCHEM_IUPAC_INCHIKEY>
SISAYUDTHCIGLM-UHFFFAOYSA-N

> <PUBCHEM_XLOGP3_AA>
0.4

> <PUBCHEM_EXACT_MASS>
110.90817

> <PUBCHEM_MOLECULAR_FORMULA>
BrO2

> <PUBCHEM_MOLECULAR_WEIGHT>
111.90

> <PUBCHEM_SMILES>
O=Br[O]

> <PUBCHEM_CONNECTIVITY_SMILES>
O=Br[O]

> <PUBCHEM_CACTVS_TPSA>
18.1

> <PUBCHEM_MONOISOTOPIC_WEIGHT>
110.90817

> <PUBCHEM_TOTAL_CHARGE>
0

> <PUBCHEM_HEAVY_ATOM_COUNT>
3

> <PUBCHEM_ATOM_DEF_STEREO_COUNT>
0

> <PUBCHEM_ATOM_UDEF_STEREO_COUNT>
0

> <PUBCHEM_BOND_DEF_STEREO_COUNT>
0

> <PUBCHEM_BOND_UDEF_STEREO_COUNT>
0

> <PUBCHEM_ISOTOPIC_ATOM_COUNT>
0

> <PUBCHEM_COMPONENT_COUNT>
1

> <PUBCHEM_CACTVS_TAUTO_COUNT>
-1

> <PUBCHEM_COORDINATE_TYPE>
1
5
255

$$$$
