3080645
  -OEChem-08152604402D

  6  0  0     0  0  0  0  0  0999 V2000
    3.7321    5.0000    0.0000 W   0  0  0  0  0  0  0  0  0  0  0  0
    0.8660    2.5000    0.0000 Cd  0  2  0  0  0  0  0  0  0  0  0  0
    1.7321    3.0000    0.0000 O   0  6  0  0  0  0  0  0  0  0  0  0
    0.0000    3.0000    0.0000 O   0  6  0  0  0  0  0  0  0  0  0  0
    3.7321    0.0000    0.0000 O   0  6  0  0  0  0  0  0  0  0  0  0
    3.7321    2.5000    0.0000 O   0  6  0  0  0  0  0  0  0  0  0  0
M  CHG  5   2   2   3  -2   4  -2   5  -2   6  -2
M  END
> <PUBCHEM_COMPOUND_CID>
3080645

> <PUBCHEM_COMPOUND_CANONICALIZED>
1

> <PUBCHEM_CACTVS_COMPLEXITY>
0

> <PUBCHEM_CACTVS_HBOND_ACCEPTOR>
4

> <PUBCHEM_CACTVS_HBOND_DONOR>
0

> <PUBCHEM_CACTVS_ROTATABLE_BOND>
0

> <PUBCHEM_CACTVS_SUBSKEYS>
AAADcQAAOAAAAAAAAAIAQAAAAAAAAAAAAAAAAAAAAAAAAAAAAAAAAAAAAAAAAAAAAAAAAAAAAAAAAAAAAAAAAAAAAAAAAAAAAAAAAAAAAAAAAAAAAAAAAAAAAAAAAAAAAAAAAAAAAAAAAAAAAAAAAAAAAA==

> <PUBCHEM_IUPAC_OPENEYE_NAME>
cadmium(2+);tetrakis(oxygen(2-));tungsten

> <PUBCHEM_IUPAC_CAS_NAME>
cadmium(2+);tetrakis(oxygen(2-));tungsten

> <PUBCHEM_IUPAC_NAME_MARKUP>
cadmium(2+);tetrakis(oxygen(2-));tungsten

> <PUBCHEM_IUPAC_NAME>
cadmium(2+);tetrakis(oxygen(2-));tungsten

> <PUBCHEM_IUPAC_SYSTEMATIC_NAME>
cadmium(2+);tetrakis(oxygen(2-));tungsten

> <PUBCHEM_IUPAC_TRADITIONAL_NAME>
cadmium(2+);tetrakis(oxygen(2-));tungsten

> <PUBCHEM_IUPAC_INCHI>
InChI=1S/Cd.4O.W/q+2;4*-2;

> <PUBCHEM_IUPAC_INCHIKEY>
HUTAIGWLQIUEPI-UHFFFAOYSA-N

> <PUBCHEM_EXACT_MASS>
361.833957

> <PUBCHEM_MOLECULAR_FORMULA>
CdO4W-6

> <PUBCHEM_MOLECULAR_WEIGHT>
360.25

> <PUBCHEM_SMILES>
[O-2].[O-2].[O-2].[O-2].[Cd+2].[W]

> <PUBCHEM_CONNECTIVITY_SMILES>
[O-2].[O-2].[O-2].[O-2].[Cd+2].[W]

> <PUBCHEM_CACTVS_TPSA>
4

> <PUBCHEM_MONOISOTOPIC_WEIGHT>
361.833957

> <PUBCHEM_TOTAL_CHARGE>
-6

> <PUBCHEM_HEAVY_ATOM_COUNT>
6

> <PUBCHEM_ATOM_DEF_STEREO_COUNT>
0

> <PUBCHEM_ATOM_UDEF_STEREO_COUNT>
0

> <PUBCHEM_BOND_DEF_STEREO_COUNT>
0

> <PUBCHEM_BOND_UDEF_STEREO_COUNT>
0

> <PUBCHEM_ISOTOPIC_ATOM_COUNT>
0

> <PUBCHEM_COMPONENT_COUNT>
6

> <PUBCHEM_CACTVS_TAUTO_COUNT>
-1

> <PUBCHEM_COORDINATE_TYPE>
1
5
255

$$$$
