10197697
  -OEChem-08152605012D

  2  0  0     0  0  0  0  0  0999 V2000
    2.0000    0.0000    0.0000 Cd  0  2  0  0  0  0  0  0  0  0  0  0
    3.0000    0.0000    0.0000 O   0  6  0  0  0  0  0  0  0  0  0  0
M  CHG  2   1   2   2  -2
M  END
> <PUBCHEM_COMPOUND_CID>
10197697

> <PUBCHEM_COMPOUND_CANONICALIZED>
1

> <PUBCHEM_CACTVS_COMPLEXITY>
0

> <PUBCHEM_CACTVS_HBOND_ACCEPTOR>
1

> <PUBCHEM_CACTVS_HBOND_DONOR>
0

> <PUBCHEM_CACTVS_ROTATABLE_BOND>
0

> <PUBCHEM_CACTVS_SUBSKEYS>
AAADcQAAIAAAAAAAAAIAAAAAAAAAAAAAAAAAAAAAAAAAAAAAAAAAAAAAAAAAAAAAAAAAAAAAAAAAAAAAAAAAAAAAAAAAAAAAAAAAAAAAAAAAAAAAAAAAAAAAAAAAAAAAAAAAAAAAAAAAAAAAAAAAAAAAAA==

> <PUBCHEM_IUPAC_OPENEYE_NAME>
cadmium(2+);oxygen(2-)

> <PUBCHEM_IUPAC_CAS_NAME>
cadmium(2+);oxygen(2-)

> <PUBCHEM_IUPAC_NAME_MARKUP>
cadmium(2+);oxygen(2-)

> <PUBCHEM_IUPAC_NAME>
cadmium(2+);oxygen(2-)

> <PUBCHEM_IUPAC_SYSTEMATIC_NAME>
cadmium(2+);oxygen(2-)

> <PUBCHEM_IUPAC_TRADITIONAL_NAME>
cadmium(2+);oxygen(2-)

> <PUBCHEM_IUPAC_INCHI>
InChI=1S/Cd.O/q+2;-2

> <PUBCHEM_IUPAC_INCHIKEY>
CFEAAQFZALKQPA-UHFFFAOYSA-N

> <PUBCHEM_EXACT_MASS>
129.898280

> <PUBCHEM_MOLECULAR_FORMULA>
CdO

> <PUBCHEM_MOLECULAR_WEIGHT>
128.41

> <PUBCHEM_SMILES>
[O-2].[Cd+2]

> <PUBCHEM_CONNECTIVITY_SMILES>
[O-2].[Cd+2]

> <PUBCHEM_CACTVS_TPSA>
1

> <PUBCHEM_MONOISOTOPIC_WEIGHT>
129.898280

> <PUBCHEM_TOTAL_CHARGE>
0

> <PUBCHEM_HEAVY_ATOM_COUNT>
2

> <PUBCHEM_ATOM_DEF_STEREO_COUNT>
0

> <PUBCHEM_ATOM_UDEF_STEREO_COUNT>
0

> <PUBCHEM_BOND_DEF_STEREO_COUNT>
0

> <PUBCHEM_BOND_UDEF_STEREO_COUNT>
0

> <PUBCHEM_ISOTOPIC_ATOM_COUNT>
0

> <PUBCHEM_COMPONENT_COUNT>
2

> <PUBCHEM_CACTVS_TAUTO_COUNT>
-1

> <PUBCHEM_COORDINATE_TYPE>
1
5
255

$$$$
