14784
  -OEChem-08152605562D

  2  1  0     0  0  0  0  0  0999 V2000
    3.0000    0.0000    0.0000 Cd  0  0  0  0  0  0  0  0  0  0  0  0
    2.0000    0.0000    0.0000 Se  0  0  0  0  0  0  0  0  0  0  0  0
  1  2  2  0  0  0  0
M  END
> <PUBCHEM_COMPOUND_CID>
14784

> <PUBCHEM_COMPOUND_CANONICALIZED>
1

> <PUBCHEM_CACTVS_COMPLEXITY>
2

> <PUBCHEM_CACTVS_HBOND_ACCEPTOR>
0

> <PUBCHEM_CACTVS_HBOND_DONOR>
0

> <PUBCHEM_CACTVS_ROTATABLE_BOND>
0

> <PUBCHEM_CACTVS_SUBSKEYS>
AAADcQAAAAAAAAAAIAIAAAAAAAAAAAAAAAAAAAAAAAAAAAAAAAAAAAAAAAAAAAAAAAAAAAAAAAAAAAAAAAAAAAAAAAAAAAAAAAAAAAAAAAAAAAAAAAAAAAAAAAAAAAAAAAAAAAAAAAAAAAAAAAAAAAAAAA==

> <PUBCHEM_IUPAC_OPENEYE_NAME>
selenoxocadmium

> <PUBCHEM_IUPAC_CAS_NAME>
selanylidenecadmium

> <PUBCHEM_IUPAC_NAME_MARKUP>
selanylidenecadmium

> <PUBCHEM_IUPAC_NAME>
selanylidenecadmium

> <PUBCHEM_IUPAC_SYSTEMATIC_NAME>
selanylidenecadmium

> <PUBCHEM_IUPAC_TRADITIONAL_NAME>
selenoxocadmium

> <PUBCHEM_IUPAC_INCHI>
InChI=1S/Cd.Se

> <PUBCHEM_IUPAC_INCHIKEY>
AQCDIIAORKRFCD-UHFFFAOYSA-N

> <PUBCHEM_EXACT_MASS>
193.81989

> <PUBCHEM_MOLECULAR_FORMULA>
CdSe

> <PUBCHEM_MOLECULAR_WEIGHT>
191.38

> <PUBCHEM_SMILES>
[Se]=[Cd]

> <PUBCHEM_CONNECTIVITY_SMILES>
[Se]=[Cd]

> <PUBCHEM_CACTVS_TPSA>
0

> <PUBCHEM_MONOISOTOPIC_WEIGHT>
193.81989

> <PUBCHEM_TOTAL_CHARGE>
0

> <PUBCHEM_HEAVY_ATOM_COUNT>
2

> <PUBCHEM_ATOM_DEF_STEREO_COUNT>
0

> <PUBCHEM_ATOM_UDEF_STEREO_COUNT>
0

> <PUBCHEM_BOND_DEF_STEREO_COUNT>
0

> <PUBCHEM_BOND_UDEF_STEREO_COUNT>
0

> <PUBCHEM_ISOTOPIC_ATOM_COUNT>
0

> <PUBCHEM_COMPONENT_COUNT>
1

> <PUBCHEM_CACTVS_TAUTO_COUNT>
-1

> <PUBCHEM_COORDINATE_TYPE>
1
5
255

$$$$
