24635
  -OEChem-08152606322D

  3  0  0     0  0  0  0  0  0999 V2000
    3.7321    0.2500    0.0000 I   0  5  0  0  0  0  0  0  0  0  0  0
    2.0000    0.2500    0.0000 I   0  5  0  0  0  0  0  0  0  0  0  0
    2.8660   -0.2500    0.0000 Cd  0  2  0  0  0  0  0  0  0  0  0  0
M  CHG  3   1  -1   2  -1   3   2
M  END
> <PUBCHEM_COMPOUND_CID>
24635

> <PUBCHEM_COMPOUND_CANONICALIZED>
1

> <PUBCHEM_CACTVS_COMPLEXITY>
0

> <PUBCHEM_CACTVS_HBOND_ACCEPTOR>
2

> <PUBCHEM_CACTVS_HBOND_DONOR>
0

> <PUBCHEM_CACTVS_ROTATABLE_BOND>
0

> <PUBCHEM_CACTVS_SUBSKEYS>
AAADcQAAAAAAAwAAAAIAAAAAAAAAAAAAAAAAAAAAAAAAAAAAAAAAAAAAAAAAAAAAAAAAAAAAAAAAAAAAAAAAAAAAAAAAAAAAAAAAAAAAAAAAAAAAAAAAAAAAAAAAAAAAAAAAAAAAAAAAAAAAAAAAAAAAAA==

> <PUBCHEM_IUPAC_OPENEYE_NAME>
cadmium(2+) diiodide

> <PUBCHEM_IUPAC_CAS_NAME>
cadmium(2+) diiodide

> <PUBCHEM_IUPAC_NAME_MARKUP>
cadmium(2+) diiodide

> <PUBCHEM_IUPAC_NAME>
cadmium(2+) diiodide

> <PUBCHEM_IUPAC_SYSTEMATIC_NAME>
cadmium(2+) diiodide

> <PUBCHEM_IUPAC_TRADITIONAL_NAME>
cadmium(2+) diiodide

> <PUBCHEM_IUPAC_INCHI>
InChI=1S/Cd.2HI/h;2*1H/q+2;;/p-2

> <PUBCHEM_IUPAC_INCHIKEY>
OKIIEJOIXGHUKX-UHFFFAOYSA-L

> <PUBCHEM_EXACT_MASS>
367.71231

> <PUBCHEM_MOLECULAR_FORMULA>
CdI2

> <PUBCHEM_MOLECULAR_WEIGHT>
366.22

> <PUBCHEM_SMILES>
[Cd+2].[I-].[I-]

> <PUBCHEM_CONNECTIVITY_SMILES>
[Cd+2].[I-].[I-]

> <PUBCHEM_CACTVS_TPSA>
0

> <PUBCHEM_MONOISOTOPIC_WEIGHT>
367.71231

> <PUBCHEM_TOTAL_CHARGE>
0

> <PUBCHEM_HEAVY_ATOM_COUNT>
3

> <PUBCHEM_ATOM_DEF_STEREO_COUNT>
0

> <PUBCHEM_ATOM_UDEF_STEREO_COUNT>
0

> <PUBCHEM_BOND_DEF_STEREO_COUNT>
0

> <PUBCHEM_BOND_UDEF_STEREO_COUNT>
0

> <PUBCHEM_ISOTOPIC_ATOM_COUNT>
0

> <PUBCHEM_COMPONENT_COUNT>
3

> <PUBCHEM_CACTVS_TAUTO_COUNT>
-1

> <PUBCHEM_COORDINATE_TYPE>
1
5
255

$$$$
