159393
  -OEChem-08152606092D

  5  0  0     0  0  0  0  0  0999 V2000
    3.7321    0.7500    0.0000 Cd  0  2  0  0  0  0  0  0  0  0  0  0
    2.0000    0.7500    0.0000 Cd  0  2  0  0  0  0  0  0  0  0  0  0
    2.8660   -0.7500    0.0000 Cd  0  2  0  0  0  0  0  0  0  0  0  0
    2.8660    0.2500    0.0000 P   0  7  0  0  0  0  0  0  0  0  0  0
    4.5981    0.2500    0.0000 P   0  7  0  0  0  0  0  0  0  0  0  0
M  CHG  5   1   2   2   2   3   2   4  -3   5  -3
M  END
> <PUBCHEM_COMPOUND_CID>
159393

> <PUBCHEM_COMPOUND_CANONICALIZED>
1

> <PUBCHEM_CACTVS_COMPLEXITY>
0

> <PUBCHEM_CACTVS_HBOND_ACCEPTOR>
2

> <PUBCHEM_CACTVS_HBOND_DONOR>
0

> <PUBCHEM_CACTVS_ROTATABLE_BOND>
0

> <PUBCHEM_CACTVS_SUBSKEYS>
AAADcQAAAAMAAAAAAAIAAAAAAAAAAAAAAAAAAAAAAAAAAAAAAAAAAAAAAAAAAAAAAAAAAAAAAAAAAAAAAAAAAAAAAAAAAAAAAAAAAAAAAAAAAAAAAAAAAAAAAAAAAAAAAAAAAAAAAAAAAAAAAAAAAAAAAA==

> <PUBCHEM_IUPAC_OPENEYE_NAME>
tris(cadmium(2+));bis(phosphorus(3-))

> <PUBCHEM_IUPAC_CAS_NAME>
tris(cadmium(2+));bis(phosphorus(3-))

> <PUBCHEM_IUPAC_NAME_MARKUP>
tris(cadmium(2+));bis(phosphorus(3-))

> <PUBCHEM_IUPAC_NAME>
tris(cadmium(2+));bis(phosphorus(3-))

> <PUBCHEM_IUPAC_SYSTEMATIC_NAME>
tris(cadmium(2+));bis(phosphorus(3-))

> <PUBCHEM_IUPAC_TRADITIONAL_NAME>
tris(cadmium(2+));bis(phosphorus(3-))

> <PUBCHEM_IUPAC_INCHI>
InChI=1S/3Cd.2P/q3*+2;2*-3

> <PUBCHEM_IUPAC_INCHIKEY>
BYWFNUBYQJKAKF-UHFFFAOYSA-N

> <PUBCHEM_EXACT_MASS>
401.657018

> <PUBCHEM_MOLECULAR_FORMULA>
Cd3P2

> <PUBCHEM_MOLECULAR_WEIGHT>
399.19

> <PUBCHEM_SMILES>
[P-3].[P-3].[Cd+2].[Cd+2].[Cd+2]

> <PUBCHEM_CONNECTIVITY_SMILES>
[P-3].[P-3].[Cd+2].[Cd+2].[Cd+2]

> <PUBCHEM_CACTVS_TPSA>
0

> <PUBCHEM_MONOISOTOPIC_WEIGHT>
403.657619

> <PUBCHEM_TOTAL_CHARGE>
0

> <PUBCHEM_HEAVY_ATOM_COUNT>
5

> <PUBCHEM_ATOM_DEF_STEREO_COUNT>
0

> <PUBCHEM_ATOM_UDEF_STEREO_COUNT>
0

> <PUBCHEM_BOND_DEF_STEREO_COUNT>
0

> <PUBCHEM_BOND_UDEF_STEREO_COUNT>
0

> <PUBCHEM_ISOTOPIC_ATOM_COUNT>
0

> <PUBCHEM_COMPONENT_COUNT>
5

> <PUBCHEM_CACTVS_TAUTO_COUNT>
-1

> <PUBCHEM_COORDINATE_TYPE>
1
5
255

$$$$
