44464748
  -OEChem-08152604342D

  2  0  0     0  0  0  0  0  0999 V2000
    0.0000    2.5000    0.0000 Sb  0  0  0  0  0 15  0  0  0  0  0  0
    0.0000    0.0000    0.0000 Cd  0  0  0  0  0  0  0  0  0  0  0  0
M  END
> <PUBCHEM_COMPOUND_CID>
44464748

> <PUBCHEM_COMPOUND_CANONICALIZED>
1

> <PUBCHEM_CACTVS_COMPLEXITY>
0

> <PUBCHEM_CACTVS_HBOND_ACCEPTOR>
0

> <PUBCHEM_CACTVS_HBOND_DONOR>
0

> <PUBCHEM_CACTVS_ROTATABLE_BOND>
0

> <PUBCHEM_CACTVS_SUBSKEYS>
AAADcQAAAAAAAAAAAAJAAAAAAAAAAAAAAAAAAAAAAAAAAAAAAAAAAAAAAAAAAAAAAAAAAAAAAAAAAAAAAAAAAAAAAAAAAAAAAAAAAAAAAAAAAAAAAAAAAAAAAAAAAAAAAAAAAAAAAAAAAAAAAAAAAAAAAA==

> <PUBCHEM_IUPAC_OPENEYE_NAME>
antimony;cadmium

> <PUBCHEM_IUPAC_CAS_NAME>
antimony;cadmium

> <PUBCHEM_IUPAC_NAME_MARKUP>
antimony;cadmium

> <PUBCHEM_IUPAC_NAME>
antimony;cadmium

> <PUBCHEM_IUPAC_SYSTEMATIC_NAME>
antimony;cadmium

> <PUBCHEM_IUPAC_TRADITIONAL_NAME>
antimony;cadmium

> <PUBCHEM_IUPAC_INCHI>
InChI=1S/Cd.Sb

> <PUBCHEM_IUPAC_INCHIKEY>
WWGNOEDOFJKLST-UHFFFAOYSA-N

> <PUBCHEM_EXACT_MASS>
234.80718

> <PUBCHEM_MOLECULAR_FORMULA>
CdSb

> <PUBCHEM_MOLECULAR_WEIGHT>
234.17

> <PUBCHEM_SMILES>
[Cd].[Sb]

> <PUBCHEM_CONNECTIVITY_SMILES>
[Cd].[Sb]

> <PUBCHEM_CACTVS_TPSA>
0

> <PUBCHEM_MONOISOTOPIC_WEIGHT>
234.80718

> <PUBCHEM_TOTAL_CHARGE>
0

> <PUBCHEM_HEAVY_ATOM_COUNT>
2

> <PUBCHEM_ATOM_DEF_STEREO_COUNT>
0

> <PUBCHEM_ATOM_UDEF_STEREO_COUNT>
0

> <PUBCHEM_BOND_DEF_STEREO_COUNT>
0

> <PUBCHEM_BOND_UDEF_STEREO_COUNT>
0

> <PUBCHEM_ISOTOPIC_ATOM_COUNT>
0

> <PUBCHEM_COMPONENT_COUNT>
2

> <PUBCHEM_CACTVS_TAUTO_COUNT>
-1

> <PUBCHEM_COORDINATE_TYPE>
1
5
255

$$$$
