3083647
  -OEChem-08152607022D

  9  7  0     0  0  0  0  0  0999 V2000
    1.5860    0.0000    0.0000 Cd  0  0  0  0  0  0  0  0  0  0  0  0
    0.5369    4.0000    0.0000 O   0  0  0  0  0  0  0  0  0  0  0  0
    3.1350    3.5000    0.0000 O   0  0  0  0  0  0  0  0  0  0  0  0
    1.4030    2.5000    0.0000 O   0  0  0  0  0  0  0  0  0  0  0  0
    2.2690    5.0000    0.0000 O   0  0  0  0  0  0  0  0  0  0  0  0
    1.4030    3.5000    0.0000 C   0  0  0  0  0  0  0  0  0  0  0  0
    2.2690    4.0000    0.0000 C   0  0  0  0  0  0  0  0  0  0  0  0
    0.0000    3.6900    0.0000 H   0  0  0  0  0  0  0  0  0  0  0  0
    3.6720    3.8100    0.0000 H   0  0  0  0  0  0  0  0  0  0  0  0
  2  6  1  0  0  0  0
  2  8  1  0  0  0  0
  3  7  1  0  0  0  0
  3  9  1  0  0  0  0
  4  6  2  0  0  0  0
  5  7  2  0  0  0  0
  6  7  1  0  0  0  0
M  END
> <PUBCHEM_COMPOUND_CID>
3083647

> <PUBCHEM_COMPOUND_CANONICALIZED>
1

> <PUBCHEM_CACTVS_COMPLEXITY>
71.5

> <PUBCHEM_CACTVS_HBOND_ACCEPTOR>
4

> <PUBCHEM_CACTVS_HBOND_DONOR>
2

> <PUBCHEM_CACTVS_ROTATABLE_BOND>
1

> <PUBCHEM_CACTVS_SUBSKEYS>
AAADcQBAOAAAAAAAAAIAAAAAAAAAAAAAAAAAAAAAAAAAAAAAAAAACgAACAAAAAAAgAAACAAAAgAIAACQCAIAAAAAAAAAAABAAAABAAAAAAAAAAAAAAABAAAAAAAAAAAAAAAAAAAAAAAAAAAAAAAAAAAAAA==

> <PUBCHEM_IUPAC_OPENEYE_NAME>
cadmium;oxalic acid

> <PUBCHEM_IUPAC_CAS_NAME>
cadmium;oxalic acid

> <PUBCHEM_IUPAC_NAME_MARKUP>
cadmium;oxalic acid

> <PUBCHEM_IUPAC_NAME>
cadmium;oxalic acid

> <PUBCHEM_IUPAC_SYSTEMATIC_NAME>
cadmium;ethanedioic acid

> <PUBCHEM_IUPAC_TRADITIONAL_NAME>
cadmium;oxalic acid

> <PUBCHEM_IUPAC_INCHI>
InChI=1S/C2H2O4.Cd/c3-1(4)2(5)6;/h(H,3,4)(H,5,6);

> <PUBCHEM_IUPAC_INCHIKEY>
OPPBPDNPEOPGLG-UHFFFAOYSA-N

> <PUBCHEM_EXACT_MASS>
203.898674

> <PUBCHEM_MOLECULAR_FORMULA>
C2H2CdO4

> <PUBCHEM_MOLECULAR_WEIGHT>
202.45

> <PUBCHEM_SMILES>
C(=O)(C(=O)O)O.[Cd]

> <PUBCHEM_CONNECTIVITY_SMILES>
C(=O)(C(=O)O)O.[Cd]

> <PUBCHEM_CACTVS_TPSA>
74.6

> <PUBCHEM_MONOISOTOPIC_WEIGHT>
203.898674

> <PUBCHEM_TOTAL_CHARGE>
0

> <PUBCHEM_HEAVY_ATOM_COUNT>
7

> <PUBCHEM_ATOM_DEF_STEREO_COUNT>
0

> <PUBCHEM_ATOM_UDEF_STEREO_COUNT>
0

> <PUBCHEM_BOND_DEF_STEREO_COUNT>
0

> <PUBCHEM_BOND_UDEF_STEREO_COUNT>
0

> <PUBCHEM_ISOTOPIC_ATOM_COUNT>
0

> <PUBCHEM_COMPONENT_COUNT>
2

> <PUBCHEM_CACTVS_TAUTO_COUNT>
-1

> <PUBCHEM_COORDINATE_TYPE>
1
5
255

$$$$
