139281
  -OEChem-08152606332D

  2  0  0     0  0  0  0  0  0999 V2000
    3.0000    0.0000    0.0000 Cs  0  3  0  0  0  0  0  0  0  0  0  0
    2.0000    0.0000    0.0000 H   0  5  0  0  0  0  0  0  0  0  0  0
M  CHG  2   1   1   2  -1
M  END
> <PUBCHEM_COMPOUND_CID>
139281

> <PUBCHEM_COMPOUND_CANONICALIZED>
1

> <PUBCHEM_CACTVS_COMPLEXITY>
0

> <PUBCHEM_CACTVS_HBOND_ACCEPTOR>
1

> <PUBCHEM_CACTVS_HBOND_DONOR>
0

> <PUBCHEM_CACTVS_ROTATABLE_BOND>
0

> <PUBCHEM_CACTVS_SUBSKEYS>
AAADcQAAAAAAAAAAAAAIAAAAAAAAAAAAAAAAAAAAAAAAAAAAAAAAAAAAAAAAAAAAAAAAAAAAAAAAAAAAAAAAAAAAAAAAAAAAAAAAAAAAAAAAAAAAAAAAAAAAAAAAAAAAAAAAAAAAAAAAAAAAAAAAAAAAAA==

> <PUBCHEM_IUPAC_OPENEYE_NAME>
cesium hydride

> <PUBCHEM_IUPAC_CAS_NAME>
cesium hydride

> <PUBCHEM_IUPAC_NAME_MARKUP>
cesium hydride

> <PUBCHEM_IUPAC_NAME>
cesium hydride

> <PUBCHEM_IUPAC_SYSTEMATIC_NAME>
cesium hydride

> <PUBCHEM_IUPAC_TRADITIONAL_NAME>
cesium hydride

> <PUBCHEM_IUPAC_INCHI>
InChI=1S/Cs.H/q+1;-1

> <PUBCHEM_IUPAC_INCHIKEY>
HXCOCQWMKNUQSA-UHFFFAOYSA-N

> <PUBCHEM_EXACT_MASS>
133.91327699

> <PUBCHEM_MOLECULAR_FORMULA>
CsH

> <PUBCHEM_MOLECULAR_WEIGHT>
133.9134

> <PUBCHEM_SMILES>
[H-].[Cs+]

> <PUBCHEM_CONNECTIVITY_SMILES>
[H-].[Cs+]

> <PUBCHEM_CACTVS_TPSA>
0

> <PUBCHEM_MONOISOTOPIC_WEIGHT>
133.91327699

> <PUBCHEM_TOTAL_CHARGE>
0

> <PUBCHEM_HEAVY_ATOM_COUNT>
1

> <PUBCHEM_ATOM_DEF_STEREO_COUNT>
0

> <PUBCHEM_ATOM_UDEF_STEREO_COUNT>
0

> <PUBCHEM_BOND_DEF_STEREO_COUNT>
0

> <PUBCHEM_BOND_UDEF_STEREO_COUNT>
0

> <PUBCHEM_ISOTOPIC_ATOM_COUNT>
0

> <PUBCHEM_COMPONENT_COUNT>
2

> <PUBCHEM_CACTVS_TAUTO_COUNT>
-1

> <PUBCHEM_NONSTANDARDBOND>
1  2  7

> <PUBCHEM_COORDINATE_TYPE>
1
5
255

$$$$
