131873465
  -OEChem-08152606252D

  8  6  0     0  0  0  0  0  0999 V2000
    1.4030    0.8660    0.0000 Se  0  0  0  0  0  0  0  0  0  0  0  0
    1.1530    3.7320    0.0000 Ca  0  0  0  0  0 15  0  0  0  0  0  0
    2.2690    1.3660    0.0000 O   0  0  0  0  0  0  0  0  0  0  0  0
    0.5369    0.3660    0.0000 O   0  0  0  0  0  0  0  0  0  0  0  0
    0.9030    1.7320    0.0000 O   0  0  0  0  0  0  0  0  0  0  0  0
    1.9030    0.0000    0.0000 O   0  0  0  0  0  0  0  0  0  0  0  0
    2.8059    1.0560    0.0000 H   0  0  0  0  0  0  0  0  0  0  0  0
    0.0000    0.6760    0.0000 H   0  0  0  0  0  0  0  0  0  0  0  0
  1  3  1  0  0  0  0
  1  4  1  0  0  0  0
  1  5  2  0  0  0  0
  1  6  2  0  0  0  0
  3  7  1  0  0  0  0
  4  8  1  0  0  0  0
M  END
> <PUBCHEM_COMPOUND_CID>
131873465

> <PUBCHEM_COMPOUND_CANONICALIZED>
1

> <PUBCHEM_CACTVS_COMPLEXITY>
81.3

> <PUBCHEM_CACTVS_HBOND_ACCEPTOR>
4

> <PUBCHEM_CACTVS_HBOND_DONOR>
2

> <PUBCHEM_CACTVS_ROTATABLE_BOND>
0

> <PUBCHEM_CACTVS_SUBSKEYS>
AAADcQAAOAAAAAgAIAAAAAAAAAAAAAAAAAAAAAAAAAAAAAAAAAAAAAAACAAAAAAAAAAAAAAAAAAAAAAAAAAAAAAAAAAAAAAAAAAAAAAAAAAAAAAAAAAAAAAAAAAAAAAAAAAAAAAAAAAAAAAAAAAAAAAAAA==

> <PUBCHEM_IUPAC_INCHI>
InChI=1S/Ca.H2O4Se/c;1-5(2,3)4/h;(H2,1,2,3,4)

> <PUBCHEM_IUPAC_INCHIKEY>
RUSZKRPJXSNMBK-UHFFFAOYSA-N

> <PUBCHEM_EXACT_MASS>
185.87442

> <PUBCHEM_MOLECULAR_FORMULA>
CaH2O4Se

> <PUBCHEM_MOLECULAR_WEIGHT>
185.06

> <PUBCHEM_SMILES>
O[Se](=O)(=O)O.[Ca]

> <PUBCHEM_CONNECTIVITY_SMILES>
O[Se](=O)(=O)O.[Ca]

> <PUBCHEM_CACTVS_TPSA>
74.6

> <PUBCHEM_MONOISOTOPIC_WEIGHT>
185.87442

> <PUBCHEM_TOTAL_CHARGE>
0

> <PUBCHEM_HEAVY_ATOM_COUNT>
6

> <PUBCHEM_ATOM_DEF_STEREO_COUNT>
0

> <PUBCHEM_ATOM_UDEF_STEREO_COUNT>
0

> <PUBCHEM_BOND_DEF_STEREO_COUNT>
0

> <PUBCHEM_BOND_UDEF_STEREO_COUNT>
0

> <PUBCHEM_ISOTOPIC_ATOM_COUNT>
0

> <PUBCHEM_COMPONENT_COUNT>
2

> <PUBCHEM_CACTVS_TAUTO_COUNT>
-1

> <PUBCHEM_COORDINATE_TYPE>
1
5
255

$$$$
