26264
  -OEChem-08152605532D

  6  4  0     0  0  0  0  0  0999 V2000
    3.0000    0.0000    0.0000 Cr  0  0  0  0  0  0  0  0  0  0  0  0
    2.0000   -1.0000    0.0000 Ca  0  2  0  0  0  0  0  0  0  0  0  0
    2.0000    0.0000    0.0000 O   0  5  0  0  0  0  0  0  0  0  0  0
    3.0000   -1.0000    0.0000 O   0  5  0  0  0  0  0  0  0  0  0  0
    4.0000   -0.0000    0.0000 O   0  0  0  0  0  0  0  0  0  0  0  0
    3.0000    1.0000    0.0000 O   0  0  0  0  0  0  0  0  0  0  0  0
  1  3  1  0  0  0  0
  1  4  1  0  0  0  0
  1  5  2  0  0  0  0
  1  6  2  0  0  0  0
M  CHG  3   2   2   3  -1   4  -1
M  END
> <PUBCHEM_COMPOUND_CID>
26264

> <PUBCHEM_COMPOUND_CANONICALIZED>
1

> <PUBCHEM_CACTVS_COMPLEXITY>
62.2

> <PUBCHEM_CACTVS_HBOND_ACCEPTOR>
4

> <PUBCHEM_CACTVS_HBOND_DONOR>
0

> <PUBCHEM_CACTVS_ROTATABLE_BOND>
0

> <PUBCHEM_CACTVS_SUBSKEYS>
AAADcQAAOAAAAAiAAAAAAAAAAAAAAAAAAAAAAAAAAAAAAAAAAAAAAAAAAAAAAAAAAAAAAAAAAAAAAAAAAAAAAAAAAAAAAAAAAAAAAAAAAAAAAAAAAAAAAAAAAAAAAAAAAAAAAAAAAAAAAAAAAAAAAAAAAA==

> <PUBCHEM_IUPAC_OPENEYE_NAME>
calcium dioxido(dioxo)chromium

> <PUBCHEM_IUPAC_CAS_NAME>
calcium dioxido(dioxo)chromium

> <PUBCHEM_IUPAC_NAME_MARKUP>
calcium dioxido(dioxo)chromium

> <PUBCHEM_IUPAC_NAME>
calcium dioxido(dioxo)chromium

> <PUBCHEM_IUPAC_SYSTEMATIC_NAME>
calcium bis(oxidanidyl)-bis(oxidanylidene)chromium

> <PUBCHEM_IUPAC_TRADITIONAL_NAME>
calcium diketo(dioxido)chromium

> <PUBCHEM_IUPAC_INCHI>
InChI=1S/Ca.Cr.4O/q+2;;;;2*-1

> <PUBCHEM_IUPAC_INCHIKEY>
RFAFBXGYHBOUMV-UHFFFAOYSA-N

> <PUBCHEM_EXACT_MASS>
155.882754

> <PUBCHEM_MOLECULAR_FORMULA>
CaCrO4

> <PUBCHEM_MOLECULAR_WEIGHT>
156.07

> <PUBCHEM_SMILES>
[O-][Cr](=O)(=O)[O-].[Ca+2]

> <PUBCHEM_CONNECTIVITY_SMILES>
[O-][Cr](=O)(=O)[O-].[Ca+2]

> <PUBCHEM_CACTVS_TPSA>
80.3

> <PUBCHEM_MONOISOTOPIC_WEIGHT>
155.882754

> <PUBCHEM_TOTAL_CHARGE>
0

> <PUBCHEM_HEAVY_ATOM_COUNT>
6

> <PUBCHEM_ATOM_DEF_STEREO_COUNT>
0

> <PUBCHEM_ATOM_UDEF_STEREO_COUNT>
0

> <PUBCHEM_BOND_DEF_STEREO_COUNT>
0

> <PUBCHEM_BOND_UDEF_STEREO_COUNT>
0

> <PUBCHEM_ISOTOPIC_ATOM_COUNT>
0

> <PUBCHEM_COMPONENT_COUNT>
2

> <PUBCHEM_CACTVS_TAUTO_COUNT>
-1

> <PUBCHEM_COORDINATE_TYPE>
1
5
255

$$$$
