73415800
  -OEChem-08152605232D

 17 14  0     0  0  0  0  0  0999 V2000
    5.1350    0.0000    0.0000 Ca  0  2  0  0  0  0  0  0  0  0  0  0
    3.4030    0.0000    0.0000 Si  0  0  0  0  0  0  0  0  0  0  0  0
    6.8671   -0.0000    0.0000 Si  0  0  0  0  0  0  0  0  0  0  0  0
    2.5369   -0.5000    0.0000 O   0  0  0  0  0  0  0  0  0  0  0  0
    2.9030    0.8660    0.0000 O   0  0  0  0  0  0  0  0  0  0  0  0
    3.9030   -0.8660    0.0000 O   0  0  0  0  0  0  0  0  0  0  0  0
    7.7331   -0.5000    0.0000 O   0  0  0  0  0  0  0  0  0  0  0  0
    7.3671    0.8660    0.0000 O   0  0  0  0  0  0  0  0  0  0  0  0
    6.3671   -0.8660    0.0000 O   0  0  0  0  0  0  0  0  0  0  0  0
    4.2690    0.5000    0.0000 O   0  5  0  0  0  0  0  0  0  0  0  0
    6.0010    0.5000    0.0000 O   0  5  0  0  0  0  0  0  0  0  0  0
    2.0000   -0.1900    0.0000 H   0  0  0  0  0  0  0  0  0  0  0  0
    3.2130    1.4030    0.0000 H   0  0  0  0  0  0  0  0  0  0  0  0
    3.5930   -1.4030    0.0000 H   0  0  0  0  0  0  0  0  0  0  0  0
    8.2700   -0.1900    0.0000 H   0  0  0  0  0  0  0  0  0  0  0  0
    7.0571    1.4030    0.0000 H   0  0  0  0  0  0  0  0  0  0  0  0
    6.6771   -1.4030    0.0000 H   0  0  0  0  0  0  0  0  0  0  0  0
  2  4  1  0  0  0  0
  2  5  1  0  0  0  0
  2  6  1  0  0  0  0
  2 10  1  0  0  0  0
  3  7  1  0  0  0  0
  3  8  1  0  0  0  0
  3  9  1  0  0  0  0
  3 11  1  0  0  0  0
  4 12  1  0  0  0  0
  5 13  1  0  0  0  0
  6 14  1  0  0  0  0
  7 15  1  0  0  0  0
  8 16  1  0  0  0  0
  9 17  1  0  0  0  0
M  CHG  3   1   2  10  -1  11  -1
M  END
> <PUBCHEM_COMPOUND_CID>
73415800

> <PUBCHEM_COMPOUND_CANONICALIZED>
1

> <PUBCHEM_CACTVS_COMPLEXITY>
25.1

> <PUBCHEM_CACTVS_HBOND_ACCEPTOR>
8

> <PUBCHEM_CACTVS_HBOND_DONOR>
6

> <PUBCHEM_CACTVS_ROTATABLE_BOND>
0

> <PUBCHEM_CACTVS_SUBSKEYS>
AAADcYAAPAwAAAgAAAAAAAAAAAAAAAAAAAAAAAAAAAAAAAAAAAAAAAAACEAAAAAAAAAAAAAAAAAAAAAAAAAAAAAAAAAAAAAAAAAAAAAAAAAAAAAAAAAAAAAAAAAAAAAAAAAAAAAAAAAAAAAAAAAAAAAAAA==

> <PUBCHEM_IUPAC_OPENEYE_NAME>
calcium bis(trihydroxy(oxido)silane)

> <PUBCHEM_IUPAC_CAS_NAME>
calcium bis(trihydroxy(oxido)silane)

> <PUBCHEM_IUPAC_NAME_MARKUP>
calcium bis(trihydroxy(oxido)silane)

> <PUBCHEM_IUPAC_NAME>
calcium bis(trihydroxy(oxido)silane)

> <PUBCHEM_IUPAC_SYSTEMATIC_NAME>
calcium bis(oxidanidyl-tris(oxidanyl)silane)

> <PUBCHEM_IUPAC_TRADITIONAL_NAME>
calcium bis(trihydroxy(oxido)silane)

> <PUBCHEM_IUPAC_INCHI>
InChI=1S/Ca.2H3O4Si/c;2*1-5(2,3)4/h;2*1-3H/q+2;2*-1

> <PUBCHEM_IUPAC_INCHIKEY>
LECAAGVQUHQAJK-UHFFFAOYSA-N

> <PUBCHEM_EXACT_MASS>
229.9227111

> <PUBCHEM_MOLECULAR_FORMULA>
CaH6O8Si2

> <PUBCHEM_MOLECULAR_WEIGHT>
230.29

> <PUBCHEM_SMILES>
O[Si](O)(O)[O-].O[Si](O)(O)[O-].[Ca+2]

> <PUBCHEM_CONNECTIVITY_SMILES>
O[Si](O)(O)[O-].O[Si](O)(O)[O-].[Ca+2]

> <PUBCHEM_CACTVS_TPSA>
168

> <PUBCHEM_MONOISOTOPIC_WEIGHT>
229.9227111

> <PUBCHEM_TOTAL_CHARGE>
0

> <PUBCHEM_HEAVY_ATOM_COUNT>
11

> <PUBCHEM_ATOM_DEF_STEREO_COUNT>
0

> <PUBCHEM_ATOM_UDEF_STEREO_COUNT>
0

> <PUBCHEM_BOND_DEF_STEREO_COUNT>
0

> <PUBCHEM_BOND_UDEF_STEREO_COUNT>
0

> <PUBCHEM_ISOTOPIC_ATOM_COUNT>
0

> <PUBCHEM_COMPONENT_COUNT>
3

> <PUBCHEM_CACTVS_TAUTO_COUNT>
-1

> <PUBCHEM_COORDINATE_TYPE>
1
5
255

$$$$
