56955933
  -OEChem-08152604352D

  4  2  0     0  0  0  0  0  0999 V2000
    3.0000   -0.5000    0.0000 Ca  0  2  0  0  0  0  0  0  0  0  0  0
    2.0000   -0.5000    0.0000 N   0  5  0  0  0  0  0  0  0  0  0  0
    3.0000    0.5000    0.0000 N   0  5  0  0  0  0  0  0  0  0  0  0
    2.0000    0.5000    0.0000 C   0  0  0  0  0  0  0  0  0  0  0  0
  2  4  2  0  0  0  0
  3  4  2  0  0  0  0
M  CHG  3   1   2   2  -1   3  -1
M  END
> <PUBCHEM_COMPOUND_CID>
56955933

> <PUBCHEM_COMPOUND_CANONICALIZED>
1

> <PUBCHEM_CACTVS_COMPLEXITY>
18.3

> <PUBCHEM_CACTVS_HBOND_ACCEPTOR>
2

> <PUBCHEM_CACTVS_HBOND_DONOR>
0

> <PUBCHEM_CACTVS_ROTATABLE_BOND>
0

> <PUBCHEM_CACTVS_SUBSKEYS>
AAADcQADAAAAAAgAAAAAAAAAAAAAAAAAAAAAAAAAAAAAAAAAAAAABAAAAAAAAAAAAAABAAAAAAAgAAAAIAAAAAAAAAAAAAAAAAAAAAAAAAAAAAAAAAAAAAAAAAAAAAAAAAAAAAAAAAAAAAAAAAAAAAAAAA==

> <PUBCHEM_IUPAC_OPENEYE_NAME>
calcium azanidylidenemethyleneazanide

> <PUBCHEM_IUPAC_CAS_NAME>
calcium azanidylidenemethylideneazanide

> <PUBCHEM_IUPAC_NAME_MARKUP>
calcium azanidylidenemethylideneazanide

> <PUBCHEM_IUPAC_NAME>
calcium azanidylidenemethylideneazanide

> <PUBCHEM_IUPAC_SYSTEMATIC_NAME>
calcium azanidylidenemethylideneazanide

> <PUBCHEM_IUPAC_TRADITIONAL_NAME>
calcium amidylidenemethyleneazanide

> <PUBCHEM_IUPAC_INCHI>
InChI=1S/CN2.Ca/c2-1-3;/q-2;+2

> <PUBCHEM_IUPAC_INCHIKEY>
MYFXBBAEXORJNB-UHFFFAOYSA-N

> <PUBCHEM_EXACT_MASS>
79.9687389

> <PUBCHEM_MOLECULAR_FORMULA>
CCaN2

> <PUBCHEM_MOLECULAR_WEIGHT>
80.10

> <PUBCHEM_SMILES>
C(=[N-])=[N-].[Ca+2]

> <PUBCHEM_CONNECTIVITY_SMILES>
C(=[N-])=[N-].[Ca+2]

> <PUBCHEM_CACTVS_TPSA>
2

> <PUBCHEM_MONOISOTOPIC_WEIGHT>
79.9687389

> <PUBCHEM_TOTAL_CHARGE>
0

> <PUBCHEM_HEAVY_ATOM_COUNT>
4

> <PUBCHEM_ATOM_DEF_STEREO_COUNT>
0

> <PUBCHEM_ATOM_UDEF_STEREO_COUNT>
0

> <PUBCHEM_BOND_DEF_STEREO_COUNT>
0

> <PUBCHEM_BOND_UDEF_STEREO_COUNT>
0

> <PUBCHEM_ISOTOPIC_ATOM_COUNT>
0

> <PUBCHEM_COMPONENT_COUNT>
2

> <PUBCHEM_CACTVS_TAUTO_COUNT>
-1

> <PUBCHEM_COORDINATE_TYPE>
1
5
255

$$$$
