56589698
  -OEChem-08152604362D

 12 12  0     0  0  0  0  0  0999 V2000
    2.0000   -0.5471    0.0000 Ca  0  2  0  0  0  0  0  0  0  0  0  0
    5.2780    1.4071    0.0000 O   0  0  0  0  0  0  0  0  0  0  0  0
    3.9814    0.1134    0.0000 O   0  0  0  0  0  0  0  0  0  0  0  0
    7.4463    0.2268    0.0000 O   0  0  0  0  0  0  0  0  0  0  0  0
    4.5348   -1.4071    0.0000 O   0  0  0  0  0  0  0  0  0  0  0  0
    7.0275   -1.3361    0.0000 O   0  0  0  0  0  0  0  0  0  0  0  0
    2.7660   -1.1899    0.0000 O   0  5  0  0  0  0  0  0  0  0  0  0
    8.7706   -0.9656    0.0000 O   0  5  0  0  0  0  0  0  0  0  0  0
    6.0146    0.4245    0.0000 B   0  0  0  0  0  0  0  0  0  0  0  0
    5.7558   -0.5414    0.0000 B   0  0  0  0  0  0  0  0  0  0  0  0
    3.7057   -0.8479    0.0000 B   0  0  0  0  0  0  0  0  0  0  0  0
    7.8046   -0.7068    0.0000 B   0  0  0  0  0  0  0  0  0  0  0  0
  2  9  1  0  0  0  0
  2 10  1  0  0  0  0
  3  9  1  0  0  0  0
  3 11  1  0  0  0  0
  4  9  1  0  0  0  0
  4 12  1  0  0  0  0
  5 10  1  0  0  0  0
  5 11  1  0  0  0  0
  6 10  1  0  0  0  0
  6 12  1  0  0  0  0
  7 11  1  0  0  0  0
  8 12  1  0  0  0  0
M  CHG  3   1   2   7  -1   8  -1
M  END
> <PUBCHEM_COMPOUND_CID>
56589698

> <PUBCHEM_COMPOUND_CANONICALIZED>
1

> <PUBCHEM_CACTVS_COMPLEXITY>
121

> <PUBCHEM_CACTVS_HBOND_ACCEPTOR>
7

> <PUBCHEM_CACTVS_HBOND_DONOR>
0

> <PUBCHEM_CACTVS_ROTATABLE_BOND>
0

> <PUBCHEM_CACTVS_SUBSKEYS>
AAADcQOAOAAAAAgAAAAAAAAAAAAAAAAAAAAkSAAAAAASAAAAAAAIAAAAAAAAAAAAAAAAAAAAAAAAAAAAAAAAAAAAAAAAAAAAAAAAAAAAAAAAAAAAAAAAAAAAAAAAAAAAAAAAAAAAAAAAAAAAAAAAAAAAAA==

> <PUBCHEM_IUPAC_OPENEYE_NAME>
calcium 3,7-dioxido-2,4,6,8,9-pentaoxa-1,3,5,7-tetraborabicyclo[3.3.1]nonane

> <PUBCHEM_IUPAC_CAS_NAME>
calcium 3,7-dioxido-2,4,6,8,9-pentaoxa-1,3,5,7-tetraborabicyclo[3.3.1]nonane

> <PUBCHEM_IUPAC_NAME_MARKUP>
calcium 3,7-dioxido-2,4,6,8,9-pentaoxa-1,3,5,7-tetraborabicyclo[3.3.1]nonane

> <PUBCHEM_IUPAC_NAME>
calcium 3,7-dioxido-2,4,6,8,9-pentaoxa-1,3,5,7-tetraborabicyclo[3.3.1]nonane

> <PUBCHEM_IUPAC_SYSTEMATIC_NAME>
calcium 3,7-bis(oxidanidyl)-2,4,6,8,9-pentaoxa-1,3,5,7-tetraborabicyclo[3.3.1]nonane

> <PUBCHEM_IUPAC_TRADITIONAL_NAME>
calcium 3,7-dioxido-2,4,6,8,9-pentaoxa-1,3,5,7-tetraborabicyclo[3.3.1]nonane

> <PUBCHEM_IUPAC_INCHI>
InChI=1S/B4O7.Ca/c5-1-7-3-9-2(6)10-4(8-1)11-3;/q-2;+2

> <PUBCHEM_IUPAC_INCHIKEY>
IKRMZAOEXULJQX-UHFFFAOYSA-N

> <PUBCHEM_EXACT_MASS>
195.9642138

> <PUBCHEM_MOLECULAR_FORMULA>
B4CaO7

> <PUBCHEM_MOLECULAR_WEIGHT>
195.3

> <PUBCHEM_SMILES>
B1(OB2OB(OB(O1)O2)[O-])[O-].[Ca+2]

> <PUBCHEM_CONNECTIVITY_SMILES>
B1(OB2OB(OB(O1)O2)[O-])[O-].[Ca+2]

> <PUBCHEM_CACTVS_TPSA>
92.3

> <PUBCHEM_MONOISOTOPIC_WEIGHT>
195.9642138

> <PUBCHEM_TOTAL_CHARGE>
0

> <PUBCHEM_HEAVY_ATOM_COUNT>
12

> <PUBCHEM_ATOM_DEF_STEREO_COUNT>
0

> <PUBCHEM_ATOM_UDEF_STEREO_COUNT>
0

> <PUBCHEM_BOND_DEF_STEREO_COUNT>
0

> <PUBCHEM_BOND_UDEF_STEREO_COUNT>
0

> <PUBCHEM_ISOTOPIC_ATOM_COUNT>
0

> <PUBCHEM_COMPONENT_COUNT>
2

> <PUBCHEM_CACTVS_TAUTO_COUNT>
-1

> <PUBCHEM_COORDINATE_TYPE>
1
5
255

$$$$
