162251
  -OEChem-08152605162D

  5  0  0     0  0  0  0  0  0999 V2000
    2.8660    0.2500    0.0000 Ti  0  0  0  0  0  0  0  0  0  0  0  0
    4.5981    0.2500    0.0000 Ca  0  2  0  0  0  0  0  0  0  0  0  0
    3.7321    0.7500    0.0000 O   0  6  0  0  0  0  0  0  0  0  0  0
    2.0000    0.7500    0.0000 O   0  6  0  0  0  0  0  0  0  0  0  0
    2.8660   -0.7500    0.0000 O   0  6  0  0  0  0  0  0  0  0  0  0
M  CHG  5   1   4   2   2   3  -2   4  -2   5  -2
M  END
> <PUBCHEM_COMPOUND_CID>
162251

> <PUBCHEM_COMPOUND_CANONICALIZED>
1

> <PUBCHEM_CACTVS_COMPLEXITY>
0

> <PUBCHEM_CACTVS_HBOND_ACCEPTOR>
3

> <PUBCHEM_CACTVS_HBOND_DONOR>
0

> <PUBCHEM_CACTVS_ROTATABLE_BOND>
0

> <PUBCHEM_CACTVS_SUBSKEYS>
AAADcQAAMAAAAAoAAAAAAAAAAAAAAAAAAAAAAAAAAAAAAAAAAAAAAAAAAAAAAAAAAAAAAAAAAAAAAAAAAAAAAAAAAAAAAAAAAAAAAAAAAAAAAAAAAAAAAAAAAAAAAAAAAAAAAAAAAAAAAAAAAAAAAAAAAA==

> <PUBCHEM_IUPAC_OPENEYE_NAME>
calcium;tris(oxygen(2-));titanium(4+)

> <PUBCHEM_IUPAC_CAS_NAME>
calcium;tris(oxygen(2-));titanium(4+)

> <PUBCHEM_IUPAC_NAME_MARKUP>
calcium;tris(oxygen(2-));titanium(4+)

> <PUBCHEM_IUPAC_NAME>
calcium;tris(oxygen(2-));titanium(4+)

> <PUBCHEM_IUPAC_SYSTEMATIC_NAME>
calcium;tris(oxygen(2-));titanium(4+)

> <PUBCHEM_IUPAC_TRADITIONAL_NAME>
calcium;tris(oxygen(2-));titanium(4+)

> <PUBCHEM_IUPAC_INCHI>
InChI=1S/Ca.3O.Ti/q+2;3*-2;+4

> <PUBCHEM_IUPAC_INCHIKEY>
WEUCVIBPSSMHJG-UHFFFAOYSA-N

> <PUBCHEM_EXACT_MASS>
135.8952754

> <PUBCHEM_MOLECULAR_FORMULA>
CaO3Ti

> <PUBCHEM_MOLECULAR_WEIGHT>
135.94

> <PUBCHEM_SMILES>
[O-2].[O-2].[O-2].[Ca+2].[Ti+4]

> <PUBCHEM_CONNECTIVITY_SMILES>
[O-2].[O-2].[O-2].[Ca+2].[Ti+4]

> <PUBCHEM_CACTVS_TPSA>
3

> <PUBCHEM_MONOISOTOPIC_WEIGHT>
135.8952754

> <PUBCHEM_TOTAL_CHARGE>
0

> <PUBCHEM_HEAVY_ATOM_COUNT>
5

> <PUBCHEM_ATOM_DEF_STEREO_COUNT>
0

> <PUBCHEM_ATOM_UDEF_STEREO_COUNT>
0

> <PUBCHEM_BOND_DEF_STEREO_COUNT>
0

> <PUBCHEM_BOND_UDEF_STEREO_COUNT>
0

> <PUBCHEM_ISOTOPIC_ATOM_COUNT>
0

> <PUBCHEM_COMPONENT_COUNT>
5

> <PUBCHEM_CACTVS_TAUTO_COUNT>
-1

> <PUBCHEM_COORDINATE_TYPE>
1
5
255

$$$$
