60161377
  -OEChem-08152605552D

  3  1  0     0  0  0  0  0  0999 V2000
    3.7320    0.2500    0.0000 Br  0  0  0  0  0  0  0  0  0  0  0  0
    2.0000    0.2500    0.0000 Ca  0  2  0  0  0  0  0  0  0  0  0  0
    2.8660   -0.2500    0.0000 O   0  5  0  0  0  0  0  0  0  0  0  0
  1  3  1  0  0  0  0
M  CHG  2   2   2   3  -1
M  END
> <PUBCHEM_COMPOUND_CID>
60161377

> <PUBCHEM_COMPOUND_CANONICALIZED>
1

> <PUBCHEM_CACTVS_COMPLEXITY>
2

> <PUBCHEM_CACTVS_HBOND_ACCEPTOR>
1

> <PUBCHEM_CACTVS_HBOND_DONOR>
0

> <PUBCHEM_CACTVS_ROTATABLE_BOND>
0

> <PUBCHEM_CACTVS_SUBSKEYS>
AAADcQAAIAAAEAgAAAAAAAAAAAAAAAAAAAAAAAAAAAAAAAAAAAAAAAAAAAAAAAAAAAAAAAAAAAAAAAAAAAAAAAAAAAAAAAAAAAAAAAAAAAAAAAAAAAAAAAAAAAAAAAAAAAAAAAAAAAAAAAAAAAAAAAAAAA==

> <PUBCHEM_IUPAC_OPENEYE_NAME>
calcium hypobromite

> <PUBCHEM_IUPAC_CAS_NAME>
calcium hypobromite

> <PUBCHEM_IUPAC_NAME_MARKUP>
calcium hypobromite

> <PUBCHEM_IUPAC_NAME>
calcium hypobromite

> <PUBCHEM_IUPAC_SYSTEMATIC_NAME>
calcium hypobromite

> <PUBCHEM_IUPAC_TRADITIONAL_NAME>
calcium hypobromite

> <PUBCHEM_IUPAC_INCHI>
InChI=1S/BrO.Ca/c1-2;/q-1;+2

> <PUBCHEM_IUPAC_INCHIKEY>
RVFZJYAGWVLZII-UHFFFAOYSA-N

> <PUBCHEM_EXACT_MASS>
134.87584

> <PUBCHEM_MOLECULAR_FORMULA>
BrCaO+

> <PUBCHEM_MOLECULAR_WEIGHT>
135.98

> <PUBCHEM_SMILES>
[O-]Br.[Ca+2]

> <PUBCHEM_CONNECTIVITY_SMILES>
[O-]Br.[Ca+2]

> <PUBCHEM_CACTVS_TPSA>
23.1

> <PUBCHEM_MONOISOTOPIC_WEIGHT>
134.87584

> <PUBCHEM_TOTAL_CHARGE>
1

> <PUBCHEM_HEAVY_ATOM_COUNT>
3

> <PUBCHEM_ATOM_DEF_STEREO_COUNT>
0

> <PUBCHEM_ATOM_UDEF_STEREO_COUNT>
0

> <PUBCHEM_BOND_DEF_STEREO_COUNT>
0

> <PUBCHEM_BOND_UDEF_STEREO_COUNT>
0

> <PUBCHEM_ISOTOPIC_ATOM_COUNT>
0

> <PUBCHEM_COMPONENT_COUNT>
2

> <PUBCHEM_CACTVS_TAUTO_COUNT>
-1

> <PUBCHEM_COORDINATE_TYPE>
1
5
255

$$$$
