276
  -OEChem-08152602343D

  6  5  0     0  0  0  0  0  0999 V2000
   -1.1365    0.6119   -0.0001 O   0  5  0  0  0  0  0  0  0  0  0  0
    1.1376    0.6100   -0.0001 O   0  0  0  0  0  0  0  0  0  0  0  0
   -0.0011   -1.2777   -0.0001 N   0  0  0  0  0  0  0  0  0  0  0  0
    0.0001    0.0558    0.0002 C   0  0  0  0  0  0  0  0  0  0  0  0
    0.8623   -1.8105   -0.0003 H   0  0  0  0  0  0  0  0  0  0  0  0
   -0.8655   -1.8088   -0.0003 H   0  0  0  0  0  0  0  0  0  0  0  0
  1  4  1  0  0  0  0
  2  4  2  0  0  0  0
  3  4  1  0  0  0  0
  3  5  1  0  0  0  0
  3  6  1  0  0  0  0
M  CHG  1   1  -1
M  END
> <PUBCHEM_COMPOUND_CID>
276

> <PUBCHEM_CONFORMER_RMSD>
0.4

> <PUBCHEM_CONFORMER_DIVERSEORDER>
1

> <PUBCHEM_MMFF94_PARTIAL_CHARGES>
6
1 -0.89
2 -0.89
3 -0.8
4 0.83
5 0.37
6 0.37

> <PUBCHEM_EFFECTIVE_ROTOR_COUNT>
0

> <PUBCHEM_PHARMACOPHORE_FEATURES>
3
1 2 acceptor
1 3 donor
4 1 2 3 4 anion

> <PUBCHEM_HEAVY_ATOM_COUNT>
4

> <PUBCHEM_ATOM_DEF_STEREO_COUNT>
0

> <PUBCHEM_ATOM_UDEF_STEREO_COUNT>
0

> <PUBCHEM_BOND_DEF_STEREO_COUNT>
0

> <PUBCHEM_BOND_UDEF_STEREO_COUNT>
0

> <PUBCHEM_ISOTOPIC_ATOM_COUNT>
0

> <PUBCHEM_COMPONENT_COUNT>
1

> <PUBCHEM_CACTVS_TAUTO_COUNT>
2

> <PUBCHEM_CONFORMER_ID>
0000011400000001

> <PUBCHEM_MMFF94_ENERGY>
26.9806

> <PUBCHEM_FEATURE_SELFOVERLAP>
15.223

> <PUBCHEM_SHAPE_FINGERPRINT>
139733 1 9290573633657330466
21015797 1 9007056889496987247
5943 1 12926998193913252282

> <PUBCHEM_SHAPE_MULTIPOLES>
65.6
1.12
1.09
0.54
0
0.38
0
-0.36
0
0
0
0
0
0

> <PUBCHEM_SHAPE_SELFOVERLAP>
117.237

> <PUBCHEM_SHAPE_VOLUME>
42.7

> <PUBCHEM_COORDINATE_TYPE>
2
5
10

$$$$
