3084240
  -OEChem-08152605002D

 43 39  0     0  0  0  0  0  0999 V2000
    5.4641    1.0000    0.0000 Ce  0  1  0  0  0  0  0  0  0  0  0  0
    6.3301    1.5000    0.0000 O   0  5  0  0  0  0  0  0  0  0  0  0
    5.4641   -0.0000    0.0000 O   0  5  0  0  0  0  0  0  0  0  0  0
    4.5981    1.5000    0.0000 O   0  5  0  0  0  0  0  0  0  0  0  0
    8.9282   -0.0000    0.0000 O   0  0  0  0  0  0  0  0  0  0  0  0
    2.8660   -1.5000    0.0000 O   0  0  0  0  0  0  0  0  0  0  0  0
    2.8660    1.5000    0.0000 O   0  0  0  0  0  0  0  0  0  0  0  0
    8.0622    1.5000    0.0000 C   0  0  0  0  0  0  0  0  0  0  0  0
    4.5981   -1.5000    0.0000 C   0  0  0  0  0  0  0  0  0  0  0  0
    3.7321    3.0000    0.0000 C   0  0  0  0  0  0  0  0  0  0  0  0
    7.1962    1.0000    0.0000 C   0  0  0  0  0  0  0  0  0  0  0  0
    4.5981   -0.5000    0.0000 C   0  0  0  0  0  0  0  0  0  0  0  0
    4.5981    2.5000    0.0000 C   0  0  0  0  0  0  0  0  0  0  0  0
    8.9282    1.0000    0.0000 C   0  0  0  0  0  0  0  0  0  0  0  0
    3.7321   -2.0000    0.0000 C   0  0  0  0  0  0  0  0  0  0  0  0
    2.8660    2.5000    0.0000 C   0  0  0  0  0  0  0  0  0  0  0  0
    7.1962   -0.0000    0.0000 C   0  0  0  0  0  0  0  0  0  0  0  0
    3.7321   -0.0000    0.0000 C   0  0  0  0  0  0  0  0  0  0  0  0
    5.4641    3.0000    0.0000 C   0  0  0  0  0  0  0  0  0  0  0  0
    9.7942    1.5000    0.0000 C   0  0  0  0  0  0  0  0  0  0  0  0
    3.7321   -3.0000    0.0000 C   0  0  0  0  0  0  0  0  0  0  0  0
    2.0000    3.0000    0.0000 C   0  0  0  0  0  0  0  0  0  0  0  0
    8.0622    2.1200    0.0000 H   0  0  0  0  0  0  0  0  0  0  0  0
    5.1350   -1.8100    0.0000 H   0  0  0  0  0  0  0  0  0  0  0  0
    3.7321    3.6200    0.0000 H   0  0  0  0  0  0  0  0  0  0  0  0
    6.5762   -0.0000    0.0000 H   0  0  0  0  0  0  0  0  0  0  0  0
    7.1962   -0.6200    0.0000 H   0  0  0  0  0  0  0  0  0  0  0  0
    7.8162   -0.0000    0.0000 H   0  0  0  0  0  0  0  0  0  0  0  0
    4.0421    0.5369    0.0000 H   0  0  0  0  0  0  0  0  0  0  0  0
    3.1951    0.3100    0.0000 H   0  0  0  0  0  0  0  0  0  0  0  0
    3.4221   -0.5369    0.0000 H   0  0  0  0  0  0  0  0  0  0  0  0
    5.7741    2.4631    0.0000 H   0  0  0  0  0  0  0  0  0  0  0  0
    6.0010    3.3100    0.0000 H   0  0  0  0  0  0  0  0  0  0  0  0
    5.1541    3.5369    0.0000 H   0  0  0  0  0  0  0  0  0  0  0  0
   10.1042    0.9631    0.0000 H   0  0  0  0  0  0  0  0  0  0  0  0
   10.3312    1.8100    0.0000 H   0  0  0  0  0  0  0  0  0  0  0  0
    9.4842    2.0369    0.0000 H   0  0  0  0  0  0  0  0  0  0  0  0
    3.1121   -3.0000    0.0000 H   0  0  0  0  0  0  0  0  0  0  0  0
    3.7321   -3.6200    0.0000 H   0  0  0  0  0  0  0  0  0  0  0  0
    4.3521   -3.0000    0.0000 H   0  0  0  0  0  0  0  0  0  0  0  0
    2.3100    3.5369    0.0000 H   0  0  0  0  0  0  0  0  0  0  0  0
    1.4631    3.3100    0.0000 H   0  0  0  0  0  0  0  0  0  0  0  0
    1.6900    2.4631    0.0000 H   0  0  0  0  0  0  0  0  0  0  0  0
  2 11  1  0  0  0  0
  3 12  1  0  0  0  0
  4 13  1  0  0  0  0
  5 14  2  0  0  0  0
  6 15  2  0  0  0  0
  7 16  2  0  0  0  0
  8 11  2  3  0  0  0
  8 14  1  0  0  0  0
  8 23  1  0  0  0  0
  9 12  2  3  0  0  0
  9 15  1  0  0  0  0
  9 24  1  0  0  0  0
 10 13  2  3  0  0  0
 10 16  1  0  0  0  0
 10 25  1  0  0  0  0
 11 17  1  0  0  0  0
 12 18  1  0  0  0  0
 13 19  1  0  0  0  0
 14 20  1  0  0  0  0
 15 21  1  0  0  0  0
 16 22  1  0  0  0  0
 17 26  1  0  0  0  0
 17 27  1  0  0  0  0
 17 28  1  0  0  0  0
 18 29  1  0  0  0  0
 18 30  1  0  0  0  0
 18 31  1  0  0  0  0
 19 32  1  0  0  0  0
 19 33  1  0  0  0  0
 19 34  1  0  0  0  0
 20 35  1  0  0  0  0
 20 36  1  0  0  0  0
 20 37  1  0  0  0  0
 21 38  1  0  0  0  0
 21 39  1  0  0  0  0
 21 40  1  0  0  0  0
 22 41  1  0  0  0  0
 22 42  1  0  0  0  0
 22 43  1  0  0  0  0
M  CHG  4   1   3   2  -1   3  -1   4  -1
M  END
> <PUBCHEM_COMPOUND_CID>
3084240

> <PUBCHEM_COMPOUND_CANONICALIZED>
1

> <PUBCHEM_CACTVS_COMPLEXITY>
90.4

> <PUBCHEM_CACTVS_HBOND_ACCEPTOR>
6

> <PUBCHEM_CACTVS_HBOND_DONOR>
0

> <PUBCHEM_CACTVS_ROTATABLE_BOND>
3

> <PUBCHEM_CACTVS_SUBSKEYS>
AAADceBwOAAAAAAAAAAAAAgAAAAAAAAAAAAAAAAAAAAAAAAAAAAAGgAAAAAACASAgAACAAAAAACIAKBSAAAAAAAgIAAACAAAAEgAAAAAAQAAAAAAAAAIAQIAAAAAAAAAAAAAAAAAAAAAAAAAAAAAAAAAAA==

> <PUBCHEM_IUPAC_OPENEYE_NAME>
cerium(3+);tris(4-oxopent-2-en-2-olate)

> <PUBCHEM_IUPAC_CAS_NAME>
cerium(3+);tris(4-oxo-2-penten-2-olate)

> <PUBCHEM_IUPAC_NAME_MARKUP>
cerium(3+);tris(4-oxopent-2-en-2-olate)

> <PUBCHEM_IUPAC_NAME>
cerium(3+);tris(4-oxopent-2-en-2-olate)

> <PUBCHEM_IUPAC_SYSTEMATIC_NAME>
cerium(3+);tris(4-oxidanylidenepent-2-en-2-olate)

> <PUBCHEM_IUPAC_TRADITIONAL_NAME>
cerium(3+);tris(4-ketopent-2-en-2-olate)

> <PUBCHEM_IUPAC_INCHI>
InChI=1S/3C5H8O2.Ce/c3*1-4(6)3-5(2)7;/h3*3,6H,1-2H3;/q;;;+3/p-3

> <PUBCHEM_IUPAC_INCHIKEY>
PYPNFSVOZBISQN-UHFFFAOYSA-K

> <PUBCHEM_EXACT_MASS>
437.03926

> <PUBCHEM_MOLECULAR_FORMULA>
C15H21CeO6

> <PUBCHEM_MOLECULAR_WEIGHT>
437.44

> <PUBCHEM_SMILES>
CC(=CC(=O)C)[O-].CC(=CC(=O)C)[O-].CC(=CC(=O)C)[O-].[Ce+3]

> <PUBCHEM_CONNECTIVITY_SMILES>
CC(=CC(=O)C)[O-].CC(=CC(=O)C)[O-].CC(=CC(=O)C)[O-].[Ce+3]

> <PUBCHEM_CACTVS_TPSA>
120

> <PUBCHEM_MONOISOTOPIC_WEIGHT>
437.03926

> <PUBCHEM_TOTAL_CHARGE>
0

> <PUBCHEM_HEAVY_ATOM_COUNT>
22

> <PUBCHEM_ATOM_DEF_STEREO_COUNT>
0

> <PUBCHEM_ATOM_UDEF_STEREO_COUNT>
0

> <PUBCHEM_BOND_DEF_STEREO_COUNT>
0

> <PUBCHEM_BOND_UDEF_STEREO_COUNT>
3

> <PUBCHEM_ISOTOPIC_ATOM_COUNT>
0

> <PUBCHEM_COMPONENT_COUNT>
4

> <PUBCHEM_CACTVS_TAUTO_COUNT>
-1

> <PUBCHEM_COORDINATE_TYPE>
1
5
255

> <PUBCHEM_BONDANNOTATIONS>
10  13  1
8  11  1
9  12  1

$$$$
