6452924
  -OEChem-08152606362D

 13  0  0     0  0  0  0  0  0999 V2000
    0.8660    4.2500    0.0000 Ce  0  1  0  0  0  0  0  0  0  0  0  0
    2.5981    4.2500    0.0000 Ce  0  1  0  0  0  0  0  0  0  0  0  0
    7.0981   10.0000    0.0000 Mo  0  0  0  0  0  0  0  0  0  0  0  0
    9.5981    5.0000    0.0000 Mo  0  0  0  0  0  0  0  0  0  0  0  0
    1.7321    4.7500    0.0000 O   0  6  0  0  0  0  0  0  0  0  0  0
    0.0000    4.7500    0.0000 O   0  6  0  0  0  0  0  0  0  0  0  0
    0.8660    3.2500    0.0000 O   0  6  0  0  0  0  0  0  0  0  0  0
    1.0490    6.7500    0.0000 O   0  6  0  0  0  0  0  0  0  0  0  0
    4.5981    5.0000    0.0000 O   0  6  0  0  0  0  0  0  0  0  0  0
    7.0981    0.0000    0.0000 O   0  6  0  0  0  0  0  0  0  0  0  0
    7.0981    2.5000    0.0000 O   0  6  0  0  0  0  0  0  0  0  0  0
    7.0981    5.0000    0.0000 O   0  6  0  0  0  0  0  0  0  0  0  0
    7.0981    7.5000    0.0000 O   0  6  0  0  0  0  0  0  0  0  0  0
M  CHG  8   1   3   2   3   5  -2   6  -2   7  -2   8  -2   9  -2  10  -2
M  CHG  3  11  -2  12  -2  13  -2
M  END
> <PUBCHEM_COMPOUND_CID>
6452924

> <PUBCHEM_COMPOUND_CANONICALIZED>
1

> <PUBCHEM_CACTVS_COMPLEXITY>
0

> <PUBCHEM_CACTVS_HBOND_ACCEPTOR>
9

> <PUBCHEM_CACTVS_HBOND_DONOR>
0

> <PUBCHEM_CACTVS_ROTATABLE_BOND>
0

> <PUBCHEM_CACTVS_SUBSKEYS>
AAADcQAAPAAAAAAAAEAAAAgAAAAAAAAAAAAAAAAAAAAAAAAAAAAAAAAAAAAAAAAAAAAAAAAAAAAAAAAAAAAAAAAAAAAAAAAAAAAAAAAAAAAAAAAAAAAAAAAAAAAAAAAAAAAAAAAAAAAAAAAAAAAAAAAAAA==

> <PUBCHEM_IUPAC_OPENEYE_NAME>
bis(cerium(3+));molybdenum;nonakis(oxygen(2-))

> <PUBCHEM_IUPAC_CAS_NAME>
bis(cerium(3+));molybdenum;nonakis(oxygen(2-))

> <PUBCHEM_IUPAC_NAME_MARKUP>
bis(cerium(3+));molybdenum;nonakis(oxygen(2-))

> <PUBCHEM_IUPAC_NAME>
bis(cerium(3+));molybdenum;nonakis(oxygen(2-))

> <PUBCHEM_IUPAC_SYSTEMATIC_NAME>
bis(cerium(3+));molybdenum;nonakis(oxygen(2-))

> <PUBCHEM_IUPAC_TRADITIONAL_NAME>
bis(cerium(3+));molybdenum;nonakis(oxygen(2-))

> <PUBCHEM_IUPAC_INCHI>
InChI=1S/2Ce.2Mo.9O/q2*+3;;;9*-2

> <PUBCHEM_IUPAC_INCHIKEY>
ZUCSFDYOMKUZOX-UHFFFAOYSA-N

> <PUBCHEM_EXACT_MASS>
617.57521

> <PUBCHEM_MOLECULAR_FORMULA>
Ce2Mo2O9-12

> <PUBCHEM_MOLECULAR_WEIGHT>
616.1

> <PUBCHEM_SMILES>
[O-2].[O-2].[O-2].[O-2].[O-2].[O-2].[O-2].[O-2].[O-2].[Mo].[Mo].[Ce+3].[Ce+3]

> <PUBCHEM_CONNECTIVITY_SMILES>
[O-2].[O-2].[O-2].[O-2].[O-2].[O-2].[O-2].[O-2].[O-2].[Mo].[Mo].[Ce+3].[Ce+3]

> <PUBCHEM_CACTVS_TPSA>
9

> <PUBCHEM_MONOISOTOPIC_WEIGHT>
619.57594

> <PUBCHEM_TOTAL_CHARGE>
-12

> <PUBCHEM_HEAVY_ATOM_COUNT>
13

> <PUBCHEM_ATOM_DEF_STEREO_COUNT>
0

> <PUBCHEM_ATOM_UDEF_STEREO_COUNT>
0

> <PUBCHEM_BOND_DEF_STEREO_COUNT>
0

> <PUBCHEM_BOND_UDEF_STEREO_COUNT>
0

> <PUBCHEM_ISOTOPIC_ATOM_COUNT>
0

> <PUBCHEM_COMPONENT_COUNT>
13

> <PUBCHEM_CACTVS_TAUTO_COUNT>
-1

> <PUBCHEM_COORDINATE_TYPE>
1
5
255

$$$$
