82331
  -OEChem-08152605572D

  5  4  0     0  0  0  0  0  0999 V2000
    2.8660    0.0000    0.0000 Ce  0  0  0  0  0  0  0  0  0  0  0  0
    3.7321    0.5000    0.0000 F   0  0  0  0  0  0  0  0  0  0  0  0
    2.0000   -0.5000    0.0000 F   0  0  0  0  0  0  0  0  0  0  0  0
    2.3660    0.8660    0.0000 F   0  0  0  0  0  0  0  0  0  0  0  0
    3.3660   -0.8660    0.0000 F   0  0  0  0  0  0  0  0  0  0  0  0
  1  2  1  0  0  0  0
  1  3  1  0  0  0  0
  1  4  1  0  0  0  0
  1  5  1  0  0  0  0
M  END
> <PUBCHEM_COMPOUND_CID>
82331

> <PUBCHEM_COMPOUND_CANONICALIZED>
1

> <PUBCHEM_CACTVS_COMPLEXITY>
19.1

> <PUBCHEM_CACTVS_HBOND_ACCEPTOR>
4

> <PUBCHEM_CACTVS_HBOND_DONOR>
0

> <PUBCHEM_CACTVS_ROTATABLE_BOND>
0

> <PUBCHEM_CACTVS_SUBSKEYS>
AAADcQAAAcAAAAAAAAAAAAgAAAAAAAAAAAAAAAAAAAAAAAAAAAAAAAAAAAAAAAAAAAAAAAAAAAAAAAAAAAAAAAAAAAAAAAAAAAAAAAAAAAAAAAAAAAAAAAAAAAAAAAAAAAAAAAAAAAAAAAAAAAAAAAAAAA==

> <PUBCHEM_IUPAC_OPENEYE_NAME>
tetrafluorocerium

> <PUBCHEM_IUPAC_CAS_NAME>
tetrafluorocerium

> <PUBCHEM_IUPAC_NAME_MARKUP>
tetrafluorocerium

> <PUBCHEM_IUPAC_NAME>
tetrafluorocerium

> <PUBCHEM_IUPAC_SYSTEMATIC_NAME>
tetrakis(fluoranyl)cerium

> <PUBCHEM_IUPAC_TRADITIONAL_NAME>
tetrafluorocerium

> <PUBCHEM_IUPAC_INCHI>
InChI=1S/Ce.4FH/h;4*1H/q+4;;;;/p-4

> <PUBCHEM_IUPAC_INCHIKEY>
SWURHZJFFJEBEE-UHFFFAOYSA-J

> <PUBCHEM_EXACT_MASS>
215.89906

> <PUBCHEM_MOLECULAR_FORMULA>
CeF4

> <PUBCHEM_MOLECULAR_WEIGHT>
216.110

> <PUBCHEM_SMILES>
F[Ce](F)(F)F

> <PUBCHEM_CONNECTIVITY_SMILES>
F[Ce](F)(F)F

> <PUBCHEM_CACTVS_TPSA>
0

> <PUBCHEM_MONOISOTOPIC_WEIGHT>
215.89906

> <PUBCHEM_TOTAL_CHARGE>
0

> <PUBCHEM_HEAVY_ATOM_COUNT>
5

> <PUBCHEM_ATOM_DEF_STEREO_COUNT>
0

> <PUBCHEM_ATOM_UDEF_STEREO_COUNT>
0

> <PUBCHEM_BOND_DEF_STEREO_COUNT>
0

> <PUBCHEM_BOND_UDEF_STEREO_COUNT>
0

> <PUBCHEM_ISOTOPIC_ATOM_COUNT>
0

> <PUBCHEM_COMPONENT_COUNT>
1

> <PUBCHEM_CACTVS_TAUTO_COUNT>
-1

> <PUBCHEM_COORDINATE_TYPE>
1
5
255

$$$$
