292780
  -OEChem-08152606162D

  4  3  0     0  0  0  0  0  0999 V2000
    2.8660    0.2500    0.0000 Ce  0  0  0  0  0  0  0  0  0  0  0  0
    3.7321    0.7500    0.0000 Br  0  0  0  0  0  0  0  0  0  0  0  0
    2.0000    0.7500    0.0000 Br  0  0  0  0  0  0  0  0  0  0  0  0
    2.8660   -0.7500    0.0000 Br  0  0  0  0  0  0  0  0  0  0  0  0
  1  2  1  0  0  0  0
  1  3  1  0  0  0  0
  1  4  1  0  0  0  0
M  END
> <PUBCHEM_COMPOUND_CID>
292780

> <PUBCHEM_COMPOUND_CANONICALIZED>
1

> <PUBCHEM_CACTVS_COMPLEXITY>
8

> <PUBCHEM_CACTVS_HBOND_ACCEPTOR>
0

> <PUBCHEM_CACTVS_HBOND_DONOR>
0

> <PUBCHEM_CACTVS_ROTATABLE_BOND>
0

> <PUBCHEM_CACTVS_SUBSKEYS>
AAADcQAAAAAAGAAAAAAAAAgAAAAAAAAAAAAAAAAAAAAAAAAAAAAAAAAAAAAAAAAAAAAAAAAAAAAAAAAAAAAAAAAAAAAAAAAAAAAAAAAAAAAAAAAAAAAAAAAAAAAAAAAAAAAAAAAAAAAAAAAAAAAAAAAAAA==

> <PUBCHEM_IUPAC_OPENEYE_NAME>
tribromocerium

> <PUBCHEM_IUPAC_CAS_NAME>
tribromocerium

> <PUBCHEM_IUPAC_NAME_MARKUP>
tribromocerium

> <PUBCHEM_IUPAC_NAME>
tribromocerium

> <PUBCHEM_IUPAC_SYSTEMATIC_NAME>
tris(bromanyl)cerium

> <PUBCHEM_IUPAC_TRADITIONAL_NAME>
tribromocerium

> <PUBCHEM_IUPAC_INCHI>
InChI=1S/3BrH.Ce/h3*1H;/q;;;+3/p-3

> <PUBCHEM_IUPAC_INCHIKEY>
MOOUSOJAOQPDEH-UHFFFAOYSA-K

> <PUBCHEM_EXACT_MASS>
378.65841

> <PUBCHEM_MOLECULAR_FORMULA>
Br3Ce

> <PUBCHEM_MOLECULAR_WEIGHT>
379.83

> <PUBCHEM_SMILES>
Br[Ce](Br)Br

> <PUBCHEM_CONNECTIVITY_SMILES>
Br[Ce](Br)Br

> <PUBCHEM_CACTVS_TPSA>
0

> <PUBCHEM_MONOISOTOPIC_WEIGHT>
376.66046

> <PUBCHEM_TOTAL_CHARGE>
0

> <PUBCHEM_HEAVY_ATOM_COUNT>
4

> <PUBCHEM_ATOM_DEF_STEREO_COUNT>
0

> <PUBCHEM_ATOM_UDEF_STEREO_COUNT>
0

> <PUBCHEM_BOND_DEF_STEREO_COUNT>
0

> <PUBCHEM_BOND_UDEF_STEREO_COUNT>
0

> <PUBCHEM_ISOTOPIC_ATOM_COUNT>
0

> <PUBCHEM_COMPONENT_COUNT>
1

> <PUBCHEM_CACTVS_TAUTO_COUNT>
-1

> <PUBCHEM_COORDINATE_TYPE>
1
5
255

$$$$
