12076385
  -OEChem-08152606102D

  5  3  0     0  0  0  0  0  0999 V2000
    4.5981    0.2500    0.0000 Cs  0  3  0  0  0  0  0  0  0  0  0  0
    2.8660    0.2500    0.0000 Cl  0  0  0  0  0  0  0  0  0  0  0  0
    3.7320    0.7500    0.0000 O   0  5  0  0  0  0  0  0  0  0  0  0
    2.0000    0.7500    0.0000 O   0  0  0  0  0  0  0  0  0  0  0  0
    2.8660   -0.7500    0.0000 O   0  0  0  0  0  0  0  0  0  0  0  0
  2  3  1  0  0  0  0
  2  4  2  0  0  0  0
  2  5  2  0  0  0  0
M  CHG  2   1   1   3  -1
M  END
> <PUBCHEM_COMPOUND_CID>
12076385

> <PUBCHEM_COMPOUND_CANONICALIZED>
1

> <PUBCHEM_CACTVS_COMPLEXITY>
36.5

> <PUBCHEM_CACTVS_HBOND_ACCEPTOR>
3

> <PUBCHEM_CACTVS_HBOND_DONOR>
0

> <PUBCHEM_CACTVS_ROTATABLE_BOND>
0

> <PUBCHEM_CACTVS_SUBSKEYS>
AAADcQAAMAAEAAAAAAAIAAAAAAAAAAAAAAAAAAAAAAAAAAAAAAAAAAAAAAAAAAAAAAAAAAAAAAAAAAAAAAAAAAAAAAAAAAAAAAAAAAAAAAAAAAAAAAAAAAAAAAAAAAAAAAAAAAAAAAAAAAAAAAAAAAAAAA==

> <PUBCHEM_IUPAC_OPENEYE_NAME>
cesium chlorate

> <PUBCHEM_IUPAC_CAS_NAME>
cesium chlorate

> <PUBCHEM_IUPAC_NAME_MARKUP>
cesium chlorate

> <PUBCHEM_IUPAC_NAME>
cesium chlorate

> <PUBCHEM_IUPAC_SYSTEMATIC_NAME>
cesium chlorate

> <PUBCHEM_IUPAC_TRADITIONAL_NAME>
cesium chlorate

> <PUBCHEM_IUPAC_INCHI>
InChI=1S/ClHO3.Cs/c2-1(3)4;/h(H,2,3,4);/q;+1/p-1

> <PUBCHEM_IUPAC_INCHIKEY>
VSQHTVCBHFZBOT-UHFFFAOYSA-M

> <PUBCHEM_EXACT_MASS>
215.8590485

> <PUBCHEM_MOLECULAR_FORMULA>
ClCsO3

> <PUBCHEM_MOLECULAR_WEIGHT>
216.36

> <PUBCHEM_SMILES>
[O-]Cl(=O)=O.[Cs+]

> <PUBCHEM_CONNECTIVITY_SMILES>
[O-]Cl(=O)=O.[Cs+]

> <PUBCHEM_CACTVS_TPSA>
57.2

> <PUBCHEM_MONOISOTOPIC_WEIGHT>
215.8590485

> <PUBCHEM_TOTAL_CHARGE>
0

> <PUBCHEM_HEAVY_ATOM_COUNT>
5

> <PUBCHEM_ATOM_DEF_STEREO_COUNT>
0

> <PUBCHEM_ATOM_UDEF_STEREO_COUNT>
0

> <PUBCHEM_BOND_DEF_STEREO_COUNT>
0

> <PUBCHEM_BOND_UDEF_STEREO_COUNT>
0

> <PUBCHEM_ISOTOPIC_ATOM_COUNT>
0

> <PUBCHEM_COMPONENT_COUNT>
2

> <PUBCHEM_CACTVS_TAUTO_COUNT>
-1

> <PUBCHEM_COORDINATE_TYPE>
1
5
255

$$$$
