123309
  -OEChem-08152606032D

  6  4  0     0  0  0  0  0  0999 V2000
    4.5981    0.0000    0.0000 Cs  0  3  0  0  0  0  0  0  0  0  0  0
    2.8660    0.0000    0.0000 Cl  0  0  0  0  0  0  0  0  0  0  0  0
    3.7321    0.5000    0.0000 O   0  5  0  0  0  0  0  0  0  0  0  0
    2.0000   -0.5000    0.0000 O   0  0  0  0  0  0  0  0  0  0  0  0
    2.3660    0.8660    0.0000 O   0  0  0  0  0  0  0  0  0  0  0  0
    3.3660   -0.8660    0.0000 O   0  0  0  0  0  0  0  0  0  0  0  0
  2  3  1  0  0  0  0
  2  4  2  0  0  0  0
  2  5  2  0  0  0  0
  2  6  2  0  0  0  0
M  CHG  2   1   1   3  -1
M  END
> <PUBCHEM_COMPOUND_CID>
123309

> <PUBCHEM_COMPOUND_CANONICALIZED>
1

> <PUBCHEM_CACTVS_COMPLEXITY>
118

> <PUBCHEM_CACTVS_HBOND_ACCEPTOR>
4

> <PUBCHEM_CACTVS_HBOND_DONOR>
0

> <PUBCHEM_CACTVS_ROTATABLE_BOND>
0

> <PUBCHEM_CACTVS_SUBSKEYS>
AAADcQAAOAAEAAAAAAAIAAAAAAAAAAAAAAAAAAAAAAAAAAAAAAAAAAAAAAAAAAAAAAAAAAAAAAAAAAAAAAAAAAAAAAAAAAAAAAAAAAAAAAAAAAAAAAAAAAAAAAAAAAAAAAAAAAAAAAAAAAAAAAAAAAAAAA==

> <PUBCHEM_IUPAC_OPENEYE_NAME>
cesium perchlorate

> <PUBCHEM_IUPAC_CAS_NAME>
cesium perchlorate

> <PUBCHEM_IUPAC_NAME_MARKUP>
cesium perchlorate

> <PUBCHEM_IUPAC_NAME>
cesium perchlorate

> <PUBCHEM_IUPAC_SYSTEMATIC_NAME>
cesium perchlorate

> <PUBCHEM_IUPAC_TRADITIONAL_NAME>
cesium perchlorate

> <PUBCHEM_IUPAC_INCHI>
InChI=1S/ClHO4.Cs/c2-1(3,4)5;/h(H,2,3,4,5);/q;+1/p-1

> <PUBCHEM_IUPAC_INCHIKEY>
WKDKOOITVYKILI-UHFFFAOYSA-M

> <PUBCHEM_EXACT_MASS>
231.8539631

> <PUBCHEM_MOLECULAR_FORMULA>
ClCsO4

> <PUBCHEM_MOLECULAR_WEIGHT>
232.35

> <PUBCHEM_SMILES>
[O-]Cl(=O)(=O)=O.[Cs+]

> <PUBCHEM_CONNECTIVITY_SMILES>
[O-]Cl(=O)(=O)=O.[Cs+]

> <PUBCHEM_CACTVS_TPSA>
74.3

> <PUBCHEM_MONOISOTOPIC_WEIGHT>
231.8539631

> <PUBCHEM_TOTAL_CHARGE>
0

> <PUBCHEM_HEAVY_ATOM_COUNT>
6

> <PUBCHEM_ATOM_DEF_STEREO_COUNT>
0

> <PUBCHEM_ATOM_UDEF_STEREO_COUNT>
0

> <PUBCHEM_BOND_DEF_STEREO_COUNT>
0

> <PUBCHEM_BOND_UDEF_STEREO_COUNT>
0

> <PUBCHEM_ISOTOPIC_ATOM_COUNT>
0

> <PUBCHEM_COMPONENT_COUNT>
2

> <PUBCHEM_CACTVS_TAUTO_COUNT>
-1

> <PUBCHEM_NONSTANDARDBOND>
1  3  7

> <PUBCHEM_COORDINATE_TYPE>
1
5
255

$$$$
