163360431
  -OEChem-08152606372D

 10  8  0     0  0  0  0  0  0999 V2000
    0.7015    0.0369    0.0000 S   0  0  0  0  0  0  0  0  0  0  0  0
    1.7320    3.5739    0.0000 O   0  0  0  0  0  0  0  0  0  0  0  0
    0.0000    3.5739    0.0000 O   0  0  0  0  0  0  0  0  0  0  0  0
    0.8660    3.0739    0.0000 N   0  0  0  0  0  0  0  0  0  0  0  0
    1.5675    0.5369    0.0000 C   0  0  0  0  0  0  0  0  0  0  0  0
    1.8775    0.0000    0.0000 H   0  0  0  0  0  0  0  0  0  0  0  0
    2.1044    0.8469    0.0000 H   0  0  0  0  0  0  0  0  0  0  0  0
    1.2575    1.0739    0.0000 H   0  0  0  0  0  0  0  0  0  0  0  0
    0.1645    0.3469    0.0000 H   0  0  0  0  0  0  0  0  0  0  0  0
    2.2690    3.2639    0.0000 H   0  0  0  0  0  0  0  0  0  0  0  0
  1  5  1  0  0  0  0
  1  9  1  0  0  0  0
  2  4  1  0  0  0  0
  2 10  1  0  0  0  0
  3  4  2  0  0  0  0
  5  6  1  0  0  0  0
  5  7  1  0  0  0  0
  5  8  1  0  0  0  0
M  END
> <PUBCHEM_COMPOUND_CID>
163360431

> <PUBCHEM_COMPOUND_CANONICALIZED>
1

> <PUBCHEM_CACTVS_COMPLEXITY>
12.3

> <PUBCHEM_CACTVS_HBOND_ACCEPTOR>
4

> <PUBCHEM_CACTVS_HBOND_DONOR>
2

> <PUBCHEM_CACTVS_ROTATABLE_BOND>
0

> <PUBCHEM_CACTVS_SUBSKEYS>
AAADcYACMABAAAAAAAAAAAAAAAAAAAAAAAAAAAAAAAAAAAAAAAAAEAQECAAAAAAAAACCAAAAQAQBAAAAAQAAAAAAAAAAAAAAAAAAAAAAAAAAAAAAAAAAAAAAAAAAAAAAAAAAAAAAAAAAAAAAAAAAAAAAAA==

> <PUBCHEM_IUPAC_OPENEYE_NAME>
methanethiol;nitrous acid

> <PUBCHEM_IUPAC_CAS_NAME>
methanethiol;nitrous acid

> <PUBCHEM_IUPAC_NAME_MARKUP>
methanethiol;nitrous acid

> <PUBCHEM_IUPAC_NAME>
methanethiol;nitrous acid

> <PUBCHEM_IUPAC_SYSTEMATIC_NAME>
methanethiol;nitrous acid

> <PUBCHEM_IUPAC_TRADITIONAL_NAME>
methanethiol;nitrous acid

> <PUBCHEM_IUPAC_INCHI>
InChI=1S/CH4S.HNO2/c1-2;2-1-3/h2H,1H3;(H,2,3)

> <PUBCHEM_IUPAC_INCHIKEY>
XIOUJTUFRBYAFV-UHFFFAOYSA-N

> <PUBCHEM_EXACT_MASS>
95.00409958

> <PUBCHEM_MOLECULAR_FORMULA>
CH5NO2S

> <PUBCHEM_MOLECULAR_WEIGHT>
95.12

> <PUBCHEM_SMILES>
CS.N(=O)O

> <PUBCHEM_CONNECTIVITY_SMILES>
CS.N(=O)O

> <PUBCHEM_CACTVS_TPSA>
50.7

> <PUBCHEM_MONOISOTOPIC_WEIGHT>
95.00409958

> <PUBCHEM_TOTAL_CHARGE>
0

> <PUBCHEM_HEAVY_ATOM_COUNT>
5

> <PUBCHEM_ATOM_DEF_STEREO_COUNT>
0

> <PUBCHEM_ATOM_UDEF_STEREO_COUNT>
0

> <PUBCHEM_BOND_DEF_STEREO_COUNT>
0

> <PUBCHEM_BOND_UDEF_STEREO_COUNT>
0

> <PUBCHEM_ISOTOPIC_ATOM_COUNT>
0

> <PUBCHEM_COMPONENT_COUNT>
2

> <PUBCHEM_CACTVS_TAUTO_COUNT>
-1

> <PUBCHEM_COORDINATE_TYPE>
1
5
255

$$$$
