166634
  -OEChem-08152607172D

  6  0  0     0  0  0  0  0  0999 V2000
    5.4641    0.2500    0.0000 Cs  0  3  0  0  0  0  0  0  0  0  0  0
    2.0000    0.2500    0.0000 Cs  0  3  0  0  0  0  0  0  0  0  0  0
    3.7321    0.2500    0.0000 Ti  0  0  0  0  0  0  0  0  0  0  0  0
    4.5981    0.7500    0.0000 O   0  6  0  0  0  0  0  0  0  0  0  0
    2.8660    0.7500    0.0000 O   0  6  0  0  0  0  0  0  0  0  0  0
    3.7321   -0.7500    0.0000 O   0  6  0  0  0  0  0  0  0  0  0  0
M  CHG  6   1   1   2   1   3   4   4  -2   5  -2   6  -2
M  END
> <PUBCHEM_COMPOUND_CID>
166634

> <PUBCHEM_COMPOUND_CANONICALIZED>
1

> <PUBCHEM_CACTVS_COMPLEXITY>
0

> <PUBCHEM_CACTVS_HBOND_ACCEPTOR>
3

> <PUBCHEM_CACTVS_HBOND_DONOR>
0

> <PUBCHEM_CACTVS_ROTATABLE_BOND>
0

> <PUBCHEM_CACTVS_SUBSKEYS>
AAADcQAAMAAAAAIAAAAIAAAAAAAAAAAAAAAAAAAAAAAAAAAAAAAAAAAAAAAAAAAAAAAAAAAAAAAAAAAAAAAAAAAAAAAAAAAAAAAAAAAAAAAAAAAAAAAAAAAAAAAAAAAAAAAAAAAAAAAAAAAAAAAAAAAAAA==

> <PUBCHEM_IUPAC_OPENEYE_NAME>
dicesium;tris(oxygen(2-));titanium(4+)

> <PUBCHEM_IUPAC_CAS_NAME>
dicesium;tris(oxygen(2-));titanium(4+)

> <PUBCHEM_IUPAC_NAME_MARKUP>
dicesium;tris(oxygen(2-));titanium(4+)

> <PUBCHEM_IUPAC_NAME>
dicesium;tris(oxygen(2-));titanium(4+)

> <PUBCHEM_IUPAC_SYSTEMATIC_NAME>
dicesium;tris(oxygen(2-));titanium(4+)

> <PUBCHEM_IUPAC_TRADITIONAL_NAME>
dicesium;tris(oxygen(2-));titanium(4+)

> <PUBCHEM_IUPAC_INCHI>
InChI=1S/2Cs.3O.Ti/q2*+1;3*-2;+4

> <PUBCHEM_IUPAC_INCHIKEY>
UKGZHELIUYCPTO-UHFFFAOYSA-N

> <PUBCHEM_EXACT_MASS>
361.7435885

> <PUBCHEM_MOLECULAR_FORMULA>
Cs2O3Ti

> <PUBCHEM_MOLECULAR_WEIGHT>
361.676

> <PUBCHEM_SMILES>
[O-2].[O-2].[O-2].[Ti+4].[Cs+].[Cs+]

> <PUBCHEM_CONNECTIVITY_SMILES>
[O-2].[O-2].[O-2].[Ti+4].[Cs+].[Cs+]

> <PUBCHEM_CACTVS_TPSA>
3

> <PUBCHEM_MONOISOTOPIC_WEIGHT>
361.7435885

> <PUBCHEM_TOTAL_CHARGE>
0

> <PUBCHEM_HEAVY_ATOM_COUNT>
6

> <PUBCHEM_ATOM_DEF_STEREO_COUNT>
0

> <PUBCHEM_ATOM_UDEF_STEREO_COUNT>
0

> <PUBCHEM_BOND_DEF_STEREO_COUNT>
0

> <PUBCHEM_BOND_UDEF_STEREO_COUNT>
0

> <PUBCHEM_ISOTOPIC_ATOM_COUNT>
0

> <PUBCHEM_COMPONENT_COUNT>
6

> <PUBCHEM_CACTVS_TAUTO_COUNT>
-1

> <PUBCHEM_COORDINATE_TYPE>
1
5
255

$$$$
