23694897
  -OEChem-08152605142D

  4  2  0     0  0  0  0  0  0999 V2000
    2.0000   -0.0000    0.0000 Cs  0  3  0  0  0  0  0  0  0  0  0  0
    2.8660   -0.5000    0.0000 S   0  5  0  0  0  0  0  0  0  0  0  0
    4.5981    0.5000    0.0000 N   0  0  0  0  0  0  0  0  0  0  0  0
    3.7321    0.0000    0.0000 C   0  0  0  0  0  0  0  0  0  0  0  0
  2  4  1  0  0  0  0
  3  4  3  0  0  0  0
M  CHG  2   1   1   2  -1
M  END
> <PUBCHEM_COMPOUND_CID>
23694897

> <PUBCHEM_COMPOUND_CANONICALIZED>
1

> <PUBCHEM_CACTVS_COMPLEXITY>
34.5

> <PUBCHEM_CACTVS_HBOND_ACCEPTOR>
2

> <PUBCHEM_CACTVS_HBOND_DONOR>
0

> <PUBCHEM_CACTVS_ROTATABLE_BOND>
0

> <PUBCHEM_CACTVS_SUBSKEYS>
AAADcQACAABAAAAAAAAIAAAAAAAAAAAAAAAAAAAAAAAAAAAAAAAABAQAAAAAAAAAAAAAAAAAAAAQAAAAAAAAAAAAAAAAAAAAAAAAAAAAAAAAAAAAAAAAAAAAAAAAAAAAAAAAAAAAAAAAAAAAAAAAAAAAAA==

> <PUBCHEM_IUPAC_OPENEYE_NAME>
cesium thiocyanate

> <PUBCHEM_IUPAC_CAS_NAME>
cesium thiocyanate

> <PUBCHEM_IUPAC_NAME_MARKUP>
cesium thiocyanate

> <PUBCHEM_IUPAC_NAME>
cesium thiocyanate

> <PUBCHEM_IUPAC_SYSTEMATIC_NAME>
cesium thiocyanate

> <PUBCHEM_IUPAC_TRADITIONAL_NAME>
cesium thiocyanate

> <PUBCHEM_IUPAC_INCHI>
InChI=1S/CHNS.Cs/c2-1-3;/h3H;/q;+1/p-1

> <PUBCHEM_IUPAC_INCHIKEY>
QUPYHCHUQVNFJW-UHFFFAOYSA-M

> <PUBCHEM_EXACT_MASS>
190.88059714

> <PUBCHEM_MOLECULAR_FORMULA>
CCsNS

> <PUBCHEM_MOLECULAR_WEIGHT>
190.99

> <PUBCHEM_SMILES>
C(#N)[S-].[Cs+]

> <PUBCHEM_CONNECTIVITY_SMILES>
C(#N)[S-].[Cs+]

> <PUBCHEM_CACTVS_TPSA>
24.8

> <PUBCHEM_MONOISOTOPIC_WEIGHT>
190.88059714

> <PUBCHEM_TOTAL_CHARGE>
0

> <PUBCHEM_HEAVY_ATOM_COUNT>
4

> <PUBCHEM_ATOM_DEF_STEREO_COUNT>
0

> <PUBCHEM_ATOM_UDEF_STEREO_COUNT>
0

> <PUBCHEM_BOND_DEF_STEREO_COUNT>
0

> <PUBCHEM_BOND_UDEF_STEREO_COUNT>
0

> <PUBCHEM_ISOTOPIC_ATOM_COUNT>
0

> <PUBCHEM_COMPONENT_COUNT>
2

> <PUBCHEM_CACTVS_TAUTO_COUNT>
-1

> <PUBCHEM_NONSTANDARDBOND>
1  2  7

> <PUBCHEM_COORDINATE_TYPE>
1
5
255

$$$$
