84599
  -OEChem-08152606192D

104108  0     0  0  0  0  0  0999 V2000
    0.0000    8.2400    0.0000 Rh  0  0  0  0  0  0  0  0  0  0  0  0
    5.3850    0.0000    0.0000 Cl  0  5  0  0  0  0  0  0  0  0  0  0
    5.6350    6.1200    0.0000 P   0  0  0  0  0  0  0  0  0  0  0  0
    5.6350   14.3600    0.0000 P   0  0  0  0  0  0  0  0  0  0  0  0
   13.9050    8.9900    0.0000 P   0  0  0  0  0  0  0  0  0  0  0  0
    5.6350    5.1200    0.0000 C   0  0  0  0  0  0  0  0  0  0  0  0
    6.5010    6.6200    0.0000 C   0  0  0  0  0  0  0  0  0  0  0  0
    4.7690    6.6200    0.0000 C   0  0  0  0  0  0  0  0  0  0  0  0
    5.6350   13.3600    0.0000 C   0  0  0  0  0  0  0  0  0  0  0  0
    6.5010   14.8600    0.0000 C   0  0  0  0  0  0  0  0  0  0  0  0
    4.7690   14.8600    0.0000 C   0  0  0  0  0  0  0  0  0  0  0  0
   13.9050    7.9900    0.0000 C   0  0  0  0  0  0  0  0  0  0  0  0
   14.7711    9.4900    0.0000 C   0  0  0  0  0  0  0  0  0  0  0  0
   13.0390    9.4900    0.0000 C   0  0  0  0  0  0  0  0  0  0  0  0
    4.7690    4.6200    0.0000 C   0  0  0  0  0  0  0  0  0  0  0  0
    6.5010    7.6200    0.0000 C   0  0  0  0  0  0  0  0  0  0  0  0
    3.9030    6.1200    0.0000 C   0  0  0  0  0  0  0  0  0  0  0  0
    6.5010   12.8600    0.0000 C   0  0  0  0  0  0  0  0  0  0  0  0
    6.5010   15.8600    0.0000 C   0  0  0  0  0  0  0  0  0  0  0  0
    4.7690   15.8600    0.0000 C   0  0  0  0  0  0  0  0  0  0  0  0
   13.0390    7.4900    0.0000 C   0  0  0  0  0  0  0  0  0  0  0  0
   15.6371    8.9900    0.0000 C   0  0  0  0  0  0  0  0  0  0  0  0
   13.0390   10.4900    0.0000 C   0  0  0  0  0  0  0  0  0  0  0  0
    6.5010    4.6200    0.0000 C   0  0  0  0  0  0  0  0  0  0  0  0
    7.3671    6.1200    0.0000 C   0  0  0  0  0  0  0  0  0  0  0  0
    4.7690    7.6200    0.0000 C   0  0  0  0  0  0  0  0  0  0  0  0
    4.7690   12.8600    0.0000 C   0  0  0  0  0  0  0  0  0  0  0  0
    7.3671   14.3600    0.0000 C   0  0  0  0  0  0  0  0  0  0  0  0
    3.9030   14.3600    0.0000 C   0  0  0  0  0  0  0  0  0  0  0  0
   14.7711    7.4900    0.0000 C   0  0  0  0  0  0  0  0  0  0  0  0
   14.7711   10.4900    0.0000 C   0  0  0  0  0  0  0  0  0  0  0  0
   12.1730    8.9900    0.0000 C   0  0  0  0  0  0  0  0  0  0  0  0
    4.7690    3.6200    0.0000 C   0  0  0  0  0  0  0  0  0  0  0  0
    7.3671    8.1200    0.0000 C   0  0  0  0  0  0  0  0  0  0  0  0
    3.0369    6.6200    0.0000 C   0  0  0  0  0  0  0  0  0  0  0  0
    6.5010   11.8600    0.0000 C   0  0  0  0  0  0  0  0  0  0  0  0
    7.3671   16.3600    0.0000 C   0  0  0  0  0  0  0  0  0  0  0  0
    3.9030   16.3600    0.0000 C   0  0  0  0  0  0  0  0  0  0  0  0
   13.0390    6.4900    0.0000 C   0  0  0  0  0  0  0  0  0  0  0  0
   16.5031    9.4900    0.0000 C   0  0  0  0  0  0  0  0  0  0  0  0
   12.1730   10.9900    0.0000 C   0  0  0  0  0  0  0  0  0  0  0  0
    6.5010    3.6200    0.0000 C   0  0  0  0  0  0  0  0  0  0  0  0
    8.2331    6.6200    0.0000 C   0  0  0  0  0  0  0  0  0  0  0  0
    3.9030    8.1200    0.0000 C   0  0  0  0  0  0  0  0  0  0  0  0
    4.7690   11.8600    0.0000 C   0  0  0  0  0  0  0  0  0  0  0  0
    8.2331   14.8600    0.0000 C   0  0  0  0  0  0  0  0  0  0  0  0
    3.0369   14.8600    0.0000 C   0  0  0  0  0  0  0  0  0  0  0  0
   14.7711    6.4900    0.0000 C   0  0  0  0  0  0  0  0  0  0  0  0
   15.6371   10.9900    0.0000 C   0  0  0  0  0  0  0  0  0  0  0  0
   11.3070    9.4900    0.0000 C   0  0  0  0  0  0  0  0  0  0  0  0
    5.6350    3.1200    0.0000 C   0  0  0  0  0  0  0  0  0  0  0  0
    8.2331    7.6200    0.0000 C   0  0  0  0  0  0  0  0  0  0  0  0
    3.0369    7.6200    0.0000 C   0  0  0  0  0  0  0  0  0  0  0  0
    5.6350   11.3600    0.0000 C   0  0  0  0  0  0  0  0  0  0  0  0
    8.2331   15.8600    0.0000 C   0  0  0  0  0  0  0  0  0  0  0  0
    3.0369   15.8600    0.0000 C   0  0  0  0  0  0  0  0  0  0  0  0
   13.9050    5.9900    0.0000 C   0  0  0  0  0  0  0  0  0  0  0  0
   16.5031   10.4900    0.0000 C   0  0  0  0  0  0  0  0  0  0  0  0
   11.3070   10.4900    0.0000 C   0  0  0  0  0  0  0  0  0  0  0  0
    4.2321    4.9300    0.0000 H   0  0  0  0  0  0  0  0  0  0  0  0
    5.9641    7.9300    0.0000 H   0  0  0  0  0  0  0  0  0  0  0  0
    3.9030    5.5000    0.0000 H   0  0  0  0  0  0  0  0  0  0  0  0
    7.0380   13.1700    0.0000 H   0  0  0  0  0  0  0  0  0  0  0  0
    5.9641   16.1700    0.0000 H   0  0  0  0  0  0  0  0  0  0  0  0
    5.3059   16.1700    0.0000 H   0  0  0  0  0  0  0  0  0  0  0  0
   12.5021    7.8000    0.0000 H   0  0  0  0  0  0  0  0  0  0  0  0
   15.6371    8.3700    0.0000 H   0  0  0  0  0  0  0  0  0  0  0  0
   13.5759   10.8000    0.0000 H   0  0  0  0  0  0  0  0  0  0  0  0
    7.0380    4.9300    0.0000 H   0  0  0  0  0  0  0  0  0  0  0  0
    7.3671    5.5000    0.0000 H   0  0  0  0  0  0  0  0  0  0  0  0
    5.3059    7.9300    0.0000 H   0  0  0  0  0  0  0  0  0  0  0  0
    4.2321   13.1700    0.0000 H   0  0  0  0  0  0  0  0  0  0  0  0
    7.3671   13.7400    0.0000 H   0  0  0  0  0  0  0  0  0  0  0  0
    3.9030   13.7400    0.0000 H   0  0  0  0  0  0  0  0  0  0  0  0
   15.3080    7.8000    0.0000 H   0  0  0  0  0  0  0  0  0  0  0  0
   14.2341   10.8000    0.0000 H   0  0  0  0  0  0  0  0  0  0  0  0
   12.1730    8.3700    0.0000 H   0  0  0  0  0  0  0  0  0  0  0  0
    4.2321    3.3100    0.0000 H   0  0  0  0  0  0  0  0  0  0  0  0
    7.3671    8.7400    0.0000 H   0  0  0  0  0  0  0  0  0  0  0  0
    2.5000    6.3100    0.0000 H   0  0  0  0  0  0  0  0  0  0  0  0
    7.0380   11.5500    0.0000 H   0  0  0  0  0  0  0  0  0  0  0  0
    7.3671   16.9800    0.0000 H   0  0  0  0  0  0  0  0  0  0  0  0
    3.9030   16.9800    0.0000 H   0  0  0  0  0  0  0  0  0  0  0  0
   12.5021    6.1800    0.0000 H   0  0  0  0  0  0  0  0  0  0  0  0
   17.0400    9.1800    0.0000 H   0  0  0  0  0  0  0  0  0  0  0  0
   12.1730   11.6100    0.0000 H   0  0  0  0  0  0  0  0  0  0  0  0
    7.0380    3.3100    0.0000 H   0  0  0  0  0  0  0  0  0  0  0  0
    8.7700    6.3100    0.0000 H   0  0  0  0  0  0  0  0  0  0  0  0
    3.9030    8.7400    0.0000 H   0  0  0  0  0  0  0  0  0  0  0  0
    4.2321   11.5500    0.0000 H   0  0  0  0  0  0  0  0  0  0  0  0
    8.7700   14.5500    0.0000 H   0  0  0  0  0  0  0  0  0  0  0  0
    2.5000   14.5500    0.0000 H   0  0  0  0  0  0  0  0  0  0  0  0
   15.3080    6.1800    0.0000 H   0  0  0  0  0  0  0  0  0  0  0  0
   15.6371   11.6100    0.0000 H   0  0  0  0  0  0  0  0  0  0  0  0
   10.7700    9.1800    0.0000 H   0  0  0  0  0  0  0  0  0  0  0  0
    5.6350    2.5000    0.0000 H   0  0  0  0  0  0  0  0  0  0  0  0
    8.7700    7.9300    0.0000 H   0  0  0  0  0  0  0  0  0  0  0  0
    2.5000    7.9300    0.0000 H   0  0  0  0  0  0  0  0  0  0  0  0
    5.6350   10.7400    0.0000 H   0  0  0  0  0  0  0  0  0  0  0  0
    8.7700   16.1700    0.0000 H   0  0  0  0  0  0  0  0  0  0  0  0
    2.5000   16.1700    0.0000 H   0  0  0  0  0  0  0  0  0  0  0  0
   13.9050    5.3700    0.0000 H   0  0  0  0  0  0  0  0  0  0  0  0
   17.0400   10.8000    0.0000 H   0  0  0  0  0  0  0  0  0  0  0  0
   10.7700   10.8000    0.0000 H   0  0  0  0  0  0  0  0  0  0  0  0
  3  6  1  0  0  0  0
  3  7  1  0  0  0  0
  3  8  1  0  0  0  0
  4  9  1  0  0  0  0
  4 10  1  0  0  0  0
  4 11  1  0  0  0  0
  5 12  1  0  0  0  0
  5 13  1  0  0  0  0
  5 14  1  0  0  0  0
  6 15  2  0  0  0  0
  6 24  1  0  0  0  0
  7 16  2  0  0  0  0
  7 25  1  0  0  0  0
  8 17  2  0  0  0  0
  8 26  1  0  0  0  0
  9 18  2  0  0  0  0
  9 27  1  0  0  0  0
 10 19  2  0  0  0  0
 10 28  1  0  0  0  0
 11 20  2  0  0  0  0
 11 29  1  0  0  0  0
 12 21  2  0  0  0  0
 12 30  1  0  0  0  0
 13 22  2  0  0  0  0
 13 31  1  0  0  0  0
 14 23  2  0  0  0  0
 14 32  1  0  0  0  0
 15 33  1  0  0  0  0
 15 60  1  0  0  0  0
 16 34  1  0  0  0  0
 16 61  1  0  0  0  0
 17 35  1  0  0  0  0
 17 62  1  0  0  0  0
 18 36  1  0  0  0  0
 18 63  1  0  0  0  0
 19 37  1  0  0  0  0
 19 64  1  0  0  0  0
 20 38  1  0  0  0  0
 20 65  1  0  0  0  0
 21 39  1  0  0  0  0
 21 66  1  0  0  0  0
 22 40  1  0  0  0  0
 22 67  1  0  0  0  0
 23 41  1  0  0  0  0
 23 68  1  0  0  0  0
 24 42  2  0  0  0  0
 24 69  1  0  0  0  0
 25 43  2  0  0  0  0
 25 70  1  0  0  0  0
 26 44  2  0  0  0  0
 26 71  1  0  0  0  0
 27 45  2  0  0  0  0
 27 72  1  0  0  0  0
 28 46  2  0  0  0  0
 28 73  1  0  0  0  0
 29 47  2  0  0  0  0
 29 74  1  0  0  0  0
 30 48  2  0  0  0  0
 30 75  1  0  0  0  0
 31 49  2  0  0  0  0
 31 76  1  0  0  0  0
 32 50  2  0  0  0  0
 32 77  1  0  0  0  0
 33 51  2  0  0  0  0
 33 78  1  0  0  0  0
 34 52  2  0  0  0  0
 34 79  1  0  0  0  0
 35 53  2  0  0  0  0
 35 80  1  0  0  0  0
 36 54  2  0  0  0  0
 36 81  1  0  0  0  0
 37 55  2  0  0  0  0
 37 82  1  0  0  0  0
 38 56  2  0  0  0  0
 38 83  1  0  0  0  0
 39 57  2  0  0  0  0
 39 84  1  0  0  0  0
 40 58  2  0  0  0  0
 40 85  1  0  0  0  0
 41 59  2  0  0  0  0
 41 86  1  0  0  0  0
 42 51  1  0  0  0  0
 42 87  1  0  0  0  0
 43 52  1  0  0  0  0
 43 88  1  0  0  0  0
 44 53  1  0  0  0  0
 44 89  1  0  0  0  0
 45 54  1  0  0  0  0
 45 90  1  0  0  0  0
 46 55  1  0  0  0  0
 46 91  1  0  0  0  0
 47 56  1  0  0  0  0
 47 92  1  0  0  0  0
 48 57  1  0  0  0  0
 48 93  1  0  0  0  0
 49 58  1  0  0  0  0
 49 94  1  0  0  0  0
 50 59  1  0  0  0  0
 50 95  1  0  0  0  0
 51 96  1  0  0  0  0
 52 97  1  0  0  0  0
 53 98  1  0  0  0  0
 54 99  1  0  0  0  0
 55100  1  0  0  0  0
 56101  1  0  0  0  0
 57102  1  0  0  0  0
 58103  1  0  0  0  0
 59104  1  0  0  0  0
M  CHG  1   2  -1
M  END
> <PUBCHEM_COMPOUND_CID>
84599

> <PUBCHEM_COMPOUND_CANONICALIZED>
1

> <PUBCHEM_CACTVS_COMPLEXITY>
202

> <PUBCHEM_CACTVS_HBOND_ACCEPTOR>
1

> <PUBCHEM_CACTVS_HBOND_DONOR>
0

> <PUBCHEM_CACTVS_ROTATABLE_BOND>
9

> <PUBCHEM_CACTVS_SUBSKEYS>
AAADcfB8AAMEAAAAABAAAAAAAAAAAAAAAAAwYMGDAAAAAAABVAAAGAgAAAAACACAEAAwAIAAACCAACBCAAACAAAgAAAIiAAAAIgIICKAERCAIAAggAAIiAcAAAAAAAAAAAAAAAAAAAAAAAAAAAAAAAAAAA==

> <PUBCHEM_IUPAC_OPENEYE_NAME>
rhodium;tris(triphenylphosphane);chloride

> <PUBCHEM_IUPAC_CAS_NAME>
rhodium;tris(triphenylphosphine);chloride

> <PUBCHEM_IUPAC_NAME_MARKUP>
rhodium;tris(triphenylphosphane);chloride

> <PUBCHEM_IUPAC_NAME>
rhodium;tris(triphenylphosphane);chloride

> <PUBCHEM_IUPAC_SYSTEMATIC_NAME>
rhodium;tris(triphenylphosphane);chloride

> <PUBCHEM_IUPAC_TRADITIONAL_NAME>
rhodium;tris(triphenylphosphine);chloride

> <PUBCHEM_IUPAC_INCHI>
InChI=1S/3C18H15P.ClH.Rh/c3*1-4-10-16(11-5-1)19(17-12-6-2-7-13-17)18-14-8-3-9-15-18;;/h3*1-15H;1H;/p-1

> <PUBCHEM_IUPAC_INCHIKEY>
QBERHIJABFXGRZ-UHFFFAOYSA-M

> <PUBCHEM_EXACT_MASS>
924.14776

> <PUBCHEM_MOLECULAR_FORMULA>
C54H45ClP3Rh-

> <PUBCHEM_MOLECULAR_WEIGHT>
925.2

> <PUBCHEM_SMILES>
C1=CC=C(C=C1)P(C2=CC=CC=C2)C3=CC=CC=C3.C1=CC=C(C=C1)P(C2=CC=CC=C2)C3=CC=CC=C3.C1=CC=C(C=C1)P(C2=CC=CC=C2)C3=CC=CC=C3.[Cl-].[Rh]

> <PUBCHEM_CONNECTIVITY_SMILES>
C1=CC=C(C=C1)P(C2=CC=CC=C2)C3=CC=CC=C3.C1=CC=C(C=C1)P(C2=CC=CC=C2)C3=CC=CC=C3.C1=CC=C(C=C1)P(C2=CC=CC=C2)C3=CC=CC=C3.[Cl-].[Rh]

> <PUBCHEM_CACTVS_TPSA>
0

> <PUBCHEM_MONOISOTOPIC_WEIGHT>
924.14776

> <PUBCHEM_TOTAL_CHARGE>
-1

> <PUBCHEM_HEAVY_ATOM_COUNT>
59

> <PUBCHEM_ATOM_DEF_STEREO_COUNT>
0

> <PUBCHEM_ATOM_UDEF_STEREO_COUNT>
0

> <PUBCHEM_BOND_DEF_STEREO_COUNT>
0

> <PUBCHEM_BOND_UDEF_STEREO_COUNT>
0

> <PUBCHEM_ISOTOPIC_ATOM_COUNT>
0

> <PUBCHEM_COMPONENT_COUNT>
5

> <PUBCHEM_CACTVS_TAUTO_COUNT>
-1

> <PUBCHEM_COORDINATE_TYPE>
1
5
255

> <PUBCHEM_BONDANNOTATIONS>
10  19  8
10  28  8
11  20  8
11  29  8
12  21  8
12  30  8
13  22  8
13  31  8
14  23  8
14  32  8
15  33  8
16  34  8
17  35  8
18  36  8
19  37  8
20  38  8
21  39  8
22  40  8
23  41  8
24  42  8
25  43  8
26  44  8
27  45  8
28  46  8
29  47  8
30  48  8
31  49  8
32  50  8
33  51  8
34  52  8
35  53  8
36  54  8
37  55  8
38  56  8
39  57  8
40  58  8
41  59  8
42  51  8
43  52  8
44  53  8
45  54  8
46  55  8
47  56  8
48  57  8
49  58  8
50  59  8
6  15  8
6  24  8
7  16  8
7  25  8
8  17  8
8  26  8
9  18  8
9  27  8

$$$$
