123272
  -OEChem-08152606472D

  9  8  0     0  0  0  0  0  0999 V2000
    2.8660    0.0000    0.0000 Cl  0  0  0  0  0  0  0  0  0  0  0  0
    4.5981    0.0000    0.0000 Cl  0  0  0  0  0  0  0  0  0  0  0  0
    3.7320    0.5000    0.0000 O   0  0  0  0  0  0  0  0  0  0  0  0
    2.0000   -0.5000    0.0000 O   0  0  0  0  0  0  0  0  0  0  0  0
    2.3660    0.8660    0.0000 O   0  0  0  0  0  0  0  0  0  0  0  0
    3.3660   -0.8660    0.0000 O   0  0  0  0  0  0  0  0  0  0  0  0
    5.4641   -0.5000    0.0000 O   0  0  0  0  0  0  0  0  0  0  0  0
    5.0981    0.8660    0.0000 O   0  0  0  0  0  0  0  0  0  0  0  0
    4.0981   -0.8660    0.0000 O   0  0  0  0  0  0  0  0  0  0  0  0
  1  3  1  0  0  0  0
  1  4  2  0  0  0  0
  1  5  2  0  0  0  0
  1  6  2  0  0  0  0
  2  3  1  0  0  0  0
  2  7  2  0  0  0  0
  2  8  2  0  0  0  0
  2  9  2  0  0  0  0
M  END
> <PUBCHEM_COMPOUND_CID>
123272

> <PUBCHEM_COMPOUND_CANONICALIZED>
1

> <PUBCHEM_CACTVS_COMPLEXITY>
283

> <PUBCHEM_CACTVS_HBOND_ACCEPTOR>
7

> <PUBCHEM_CACTVS_HBOND_DONOR>
0

> <PUBCHEM_CACTVS_ROTATABLE_BOND>
0

> <PUBCHEM_CACTVS_SUBSKEYS>
AAADcQAAOAAGAAAAAAAAAAAAAAAAAAAAAAAAAAAAAAAAAAAAAAAAAAAAAAAAAAAAAAAAAAAAAAAAAAAAAAAAAAAAAAAAAAAAAAAAAAAAAAAAAAAAAAAAAAAAAAAAAAAAAAAAAAAAAAAAAAAAAAAAAAAAAA==

> <PUBCHEM_IUPAC_OPENEYE_NAME>
perchloryl perchlorate

> <PUBCHEM_IUPAC_CAS_NAME>
perchloric acid perchloryl ester

> <PUBCHEM_IUPAC_NAME_MARKUP>
perchloryl perchlorate

> <PUBCHEM_IUPAC_NAME>
perchloryl perchlorate

> <PUBCHEM_IUPAC_SYSTEMATIC_NAME>
perchloryl perchlorate

> <PUBCHEM_IUPAC_TRADITIONAL_NAME>
perchloric acid perchloryl ester

> <PUBCHEM_IUPAC_INCHI>
InChI=1S/Cl2O7/c3-1(4,5)9-2(6,7)8

> <PUBCHEM_IUPAC_INCHIKEY>
SCDFUIZLRPEIIH-UHFFFAOYSA-N

> <PUBCHEM_XLOGP3_AA>
5.5

> <PUBCHEM_EXACT_MASS>
181.9021077

> <PUBCHEM_MOLECULAR_FORMULA>
Cl2O7

> <PUBCHEM_MOLECULAR_WEIGHT>
182.90

> <PUBCHEM_SMILES>
O=Cl(=O)(=O)OCl(=O)(=O)=O

> <PUBCHEM_CONNECTIVITY_SMILES>
O=Cl(=O)(=O)OCl(=O)(=O)=O

> <PUBCHEM_CACTVS_TPSA>
112

> <PUBCHEM_MONOISOTOPIC_WEIGHT>
181.9021077

> <PUBCHEM_TOTAL_CHARGE>
0

> <PUBCHEM_HEAVY_ATOM_COUNT>
9

> <PUBCHEM_ATOM_DEF_STEREO_COUNT>
0

> <PUBCHEM_ATOM_UDEF_STEREO_COUNT>
0

> <PUBCHEM_BOND_DEF_STEREO_COUNT>
0

> <PUBCHEM_BOND_UDEF_STEREO_COUNT>
0

> <PUBCHEM_ISOTOPIC_ATOM_COUNT>
0

> <PUBCHEM_COMPONENT_COUNT>
1

> <PUBCHEM_CACTVS_TAUTO_COUNT>
-1

> <PUBCHEM_COORDINATE_TYPE>
1
5
255

$$$$
