486
  -OEChem-08152602503D

 25 24  0     0  0  0  0  0  0999 V2000
    2.5763    0.0218   -0.1020 S   0  0  0  0  0  0  0  0  0  0  0  0
    1.1311   -0.0498    0.6582 O   0  0  0  0  0  0  0  0  0  0  0  0
    3.6500   -0.2837    1.0876 O   0  0  0  0  0  0  0  0  0  0  0  0
    2.6336   -1.0861   -1.0373 O   0  0  0  0  0  0  0  0  0  0  0  0
    2.7979    1.3790   -0.5652 O   0  0  0  0  0  0  0  0  0  0  0  0
   -2.5439   -0.0032    0.0114 N   0  3  0  0  0  0  0  0  0  0  0  0
   -1.2630   -0.0556    0.8316 C   0  0  0  0  0  0  0  0  0  0  0  0
   -2.5547   -1.1521   -0.9867 C   0  0  0  0  0  0  0  0  0  0  0  0
   -3.7448   -0.1250    0.9383 C   0  0  0  0  0  0  0  0  0  0  0  0
   -2.6132    1.3199   -0.7375 C   0  0  0  0  0  0  0  0  0  0  0  0
   -0.0692    0.0349   -0.0984 C   0  0  0  0  0  0  0  0  0  0  0  0
   -1.2756    0.7729    1.5499 H   0  0  0  0  0  0  0  0  0  0  0  0
   -1.2543   -0.9938    1.3995 H   0  0  0  0  0  0  0  0  0  0  0  0
   -2.3071   -2.0790   -0.4608 H   0  0  0  0  0  0  0  0  0  0  0  0
   -3.5632   -1.2226   -1.4077 H   0  0  0  0  0  0  0  0  0  0  0  0
   -1.8551   -0.9535   -1.8023 H   0  0  0  0  0  0  0  0  0  0  0  0
   -3.7168    0.7056    1.6498 H   0  0  0  0  0  0  0  0  0  0  0  0
   -4.6579   -0.0811    0.3372 H   0  0  0  0  0  0  0  0  0  0  0  0
   -3.6797   -1.0827    1.4632 H   0  0  0  0  0  0  0  0  0  0  0  0
   -2.4354    2.1346   -0.0294 H   0  0  0  0  0  0  0  0  0  0  0  0
   -1.8842    1.3332   -1.5512 H   0  0  0  0  0  0  0  0  0  0  0  0
   -3.6162    1.4119   -1.1669 H   0  0  0  0  0  0  0  0  0  0  0  0
   -0.0425   -0.7846   -0.8198 H   0  0  0  0  0  0  0  0  0  0  0  0
   -0.0377    0.9848   -0.6380 H   0  0  0  0  0  0  0  0  0  0  0  0
    3.5135    0.2271    1.9199 H   0  0  0  0  0  0  0  0  0  0  0  0
  1  2  1  0  0  0  0
  1  3  1  0  0  0  0
  1  4  2  0  0  0  0
  1  5  2  0  0  0  0
  2 11  1  0  0  0  0
  3 25  1  0  0  0  0
  6  7  1  0  0  0  0
  6  8  1  0  0  0  0
  6  9  1  0  0  0  0
  6 10  1  0  0  0  0
  7 11  1  0  0  0  0
  7 12  1  0  0  0  0
  7 13  1  0  0  0  0
  8 14  1  0  0  0  0
  8 15  1  0  0  0  0
  8 16  1  0  0  0  0
  9 17  1  0  0  0  0
  9 18  1  0  0  0  0
  9 19  1  0  0  0  0
 10 20  1  0  0  0  0
 10 21  1  0  0  0  0
 10 22  1  0  0  0  0
 11 23  1  0  0  0  0
 11 24  1  0  0  0  0
M  CHG  1   6   1
M  END
> <PUBCHEM_COMPOUND_CID>
486

> <PUBCHEM_CONFORMER_RMSD>
0.6

> <PUBCHEM_CONFORMER_DIVERSEORDER>
1
2
4
3
5

> <PUBCHEM_MMFF94_PARTIAL_CHARGES>
12
1 1.67
10 0.5
11 0.28
2 -0.46
25 0.5
3 -0.68
4 -0.65
5 -0.65
6 -1.01
7 0.5
8 0.5
9 0.5

> <PUBCHEM_EFFECTIVE_ROTOR_COUNT>
4

> <PUBCHEM_PHARMACOPHORE_FEATURES>
5
1 3 acceptor
1 4 acceptor
1 5 acceptor
1 6 cation
4 1 3 4 5 anion

> <PUBCHEM_HEAVY_ATOM_COUNT>
11

> <PUBCHEM_ATOM_DEF_STEREO_COUNT>
0

> <PUBCHEM_ATOM_UDEF_STEREO_COUNT>
0

> <PUBCHEM_BOND_DEF_STEREO_COUNT>
0

> <PUBCHEM_BOND_UDEF_STEREO_COUNT>
0

> <PUBCHEM_ISOTOPIC_ATOM_COUNT>
0

> <PUBCHEM_COMPONENT_COUNT>
1

> <PUBCHEM_CACTVS_TAUTO_COUNT>
1

> <PUBCHEM_CONFORMER_ID>
000001E600000001

> <PUBCHEM_MMFF94_ENERGY>
23.9144

> <PUBCHEM_FEATURE_SELFOVERLAP>
25.43

> <PUBCHEM_SHAPE_FINGERPRINT>
11062470 55 15267342916065777595
12162725 195 18113615690099182332
12932764 1 18411696590944978433
14144814 61 17313101938665750816
14325111 11 17385724694475502265
14390081 3 17675924304621746517
18186145 218 17988929946333317566
190213 19 18201722842646138131
20279233 1 15841552989468165990
20645477 56 18272928293861662289
20645477 70 13038919789066111236
20653085 51 18335708182982807985
21028194 46 16225764120727849547
22169311 21 17774994670334663078
3248919 1 18131912663070394982

> <PUBCHEM_SHAPE_MULTIPOLES>
201.77
6.95
1.13
1.12
1.67
0.2
0.02
-0.08
0.54
-0.13
-0.41
-0.15
-0.15
-0.01

> <PUBCHEM_SHAPE_SELFOVERLAP>
359.538

> <PUBCHEM_SHAPE_VOLUME>
134.1

> <PUBCHEM_COORDINATE_TYPE>
2
5
10

$$$$
