22150757
  -OEChem-08152604542D

  5  0  0     0  0  0  0  0  0999 V2000
    2.8660    0.0000    0.0000 Cr  0  0  0  0  0  0  0  0  0  0  0  0
    2.3660    0.8660    0.0000 Cl  0  5  0  0  0  0  0  0  0  0  0  0
    3.3660   -0.8660    0.0000 Cl  0  5  0  0  0  0  0  0  0  0  0  0
    3.7321    0.5000    0.0000 O   0  6  0  0  0  0  0  0  0  0  0  0
    2.0000   -0.5000    0.0000 O   0  6  0  0  0  0  0  0  0  0  0  0
M  CHG  5   1   6   2  -1   3  -1   4  -2   5  -2
M  END
> <PUBCHEM_COMPOUND_CID>
22150757

> <PUBCHEM_COMPOUND_CANONICALIZED>
1

> <PUBCHEM_CACTVS_COMPLEXITY>
0

> <PUBCHEM_CACTVS_HBOND_ACCEPTOR>
4

> <PUBCHEM_CACTVS_HBOND_DONOR>
0

> <PUBCHEM_CACTVS_ROTATABLE_BOND>
0

> <PUBCHEM_CACTVS_SUBSKEYS>
AAADcQAAMAAGAACAAAAAAAAAAAAAAAAAAAAAAAAAAAAAAAAAAAAAAAAAAAAAAAAAAAAAAAAAAAAAAAAAAAAAAAAAAAAAAAAAAAAAAAAAAAAAAAAAAAAAAAAAAAAAAAAAAAAAAAAAAAAAAAAAAAAAAAAAAA==

> <PUBCHEM_IUPAC_OPENEYE_NAME>
chromyl;bis(oxygen(2-));dichloride

> <PUBCHEM_IUPAC_CAS_NAME>
chromium(6+);bis(oxygen(2-));dichloride

> <PUBCHEM_IUPAC_NAME_MARKUP>
chromium(6+);bis(oxygen(2-));dichloride

> <PUBCHEM_IUPAC_NAME>
chromium(6+);bis(oxygen(2-));dichloride

> <PUBCHEM_IUPAC_SYSTEMATIC_NAME>
chromium(6+);bis(oxygen(2-));dichloride

> <PUBCHEM_IUPAC_TRADITIONAL_NAME>
chromyl;bis(oxygen(2-));dichloride

> <PUBCHEM_IUPAC_INCHI>
InChI=1S/2ClH.Cr.2O/h2*1H;;;/q;;+6;2*-2/p-2

> <PUBCHEM_IUPAC_INCHIKEY>
AKNPEMSZIKCOGC-UHFFFAOYSA-L

> <PUBCHEM_EXACT_MASS>
153.868039

> <PUBCHEM_MOLECULAR_FORMULA>
Cl2CrO2

> <PUBCHEM_MOLECULAR_WEIGHT>
154.90

> <PUBCHEM_SMILES>
[O-2].[O-2].[Cl-].[Cl-].[Cr+6]

> <PUBCHEM_CONNECTIVITY_SMILES>
[O-2].[O-2].[Cl-].[Cl-].[Cr+6]

> <PUBCHEM_CACTVS_TPSA>
2

> <PUBCHEM_MONOISOTOPIC_WEIGHT>
153.868039

> <PUBCHEM_TOTAL_CHARGE>
0

> <PUBCHEM_HEAVY_ATOM_COUNT>
5

> <PUBCHEM_ATOM_DEF_STEREO_COUNT>
0

> <PUBCHEM_ATOM_UDEF_STEREO_COUNT>
0

> <PUBCHEM_BOND_DEF_STEREO_COUNT>
0

> <PUBCHEM_BOND_UDEF_STEREO_COUNT>
0

> <PUBCHEM_ISOTOPIC_ATOM_COUNT>
0

> <PUBCHEM_COMPONENT_COUNT>
5

> <PUBCHEM_CACTVS_TAUTO_COUNT>
-1

> <PUBCHEM_COORDINATE_TYPE>
1
5
255

$$$$
