3650773
  -OEChem-08152605532D

  5  2  0     0  0  0  0  0  0999 V2000
    3.7321   -0.5000    0.0000 Cr  0  2  0  0  0  0  0  0  0  0  0  0
    5.4641    0.5000    0.0000 Cr  0  0  0  0  0  0  0  0  0  0  0  0
    2.0000    0.5000    0.0000 Cr  0  0  0  0  0  0  0  0  0  0  0  0
    4.5981    0.0000    0.0000 C   0  5  0  0  0  0  0  0  0  0  0  0
    2.8660   -0.0000    0.0000 C   0  5  0  0  0  0  0  0  0  0  0  0
  2  4  3  0  0  0  0
  3  5  3  0  0  0  0
M  CHG  3   1   2   4  -1   5  -1
M  END
> <PUBCHEM_COMPOUND_CID>
3650773

> <PUBCHEM_COMPOUND_CANONICALIZED>
1

> <PUBCHEM_CACTVS_COMPLEXITY>
28.9

> <PUBCHEM_CACTVS_HBOND_ACCEPTOR>
2

> <PUBCHEM_CACTVS_HBOND_DONOR>
0

> <PUBCHEM_CACTVS_ROTATABLE_BOND>
0

> <PUBCHEM_CACTVS_SUBSKEYS>
AAADcQBAAAAAAACAAAAAAAAAAAAAAAAAAAAAAAAAAAAAAAAAAAAAAAAAAAAAAAAAAAAAAAAAAAAAAAAAAAAAAAAAAAAAAAAAAAAAAAAAAAAAAAAAAAAAAAAAAAAAAAAAAAAAAAAAAAAAAAAAAAAAAAAAAA==

> <PUBCHEM_IUPAC_OPENEYE_NAME>
chromous methanidylidynechromium

> <PUBCHEM_IUPAC_CAS_NAME>
chromium(2+);methanidylidynechromium

> <PUBCHEM_IUPAC_NAME_MARKUP>
chromium(2+);methanidylidynechromium

> <PUBCHEM_IUPAC_NAME>
chromium(2+);methanidylidynechromium

> <PUBCHEM_IUPAC_SYSTEMATIC_NAME>
chromium(2+);methanidylidynechromium

> <PUBCHEM_IUPAC_TRADITIONAL_NAME>
chromous methanidylidynechromium

> <PUBCHEM_IUPAC_INCHI>
InChI=1S/2C.3Cr/q2*-1;;;+2

> <PUBCHEM_IUPAC_INCHIKEY>
GVEHJMMRQRRJPM-UHFFFAOYSA-N

> <PUBCHEM_EXACT_MASS>
179.821514

> <PUBCHEM_MOLECULAR_FORMULA>
C2Cr3

> <PUBCHEM_MOLECULAR_WEIGHT>
180.01

> <PUBCHEM_SMILES>
[C-]#[Cr].[C-]#[Cr].[Cr+2]

> <PUBCHEM_CONNECTIVITY_SMILES>
[C-]#[Cr].[C-]#[Cr].[Cr+2]

> <PUBCHEM_CACTVS_TPSA>
0

> <PUBCHEM_MONOISOTOPIC_WEIGHT>
179.821514

> <PUBCHEM_TOTAL_CHARGE>
0

> <PUBCHEM_HEAVY_ATOM_COUNT>
5

> <PUBCHEM_ATOM_DEF_STEREO_COUNT>
0

> <PUBCHEM_ATOM_UDEF_STEREO_COUNT>
0

> <PUBCHEM_BOND_DEF_STEREO_COUNT>
0

> <PUBCHEM_BOND_UDEF_STEREO_COUNT>
0

> <PUBCHEM_ISOTOPIC_ATOM_COUNT>
0

> <PUBCHEM_COMPONENT_COUNT>
3

> <PUBCHEM_CACTVS_TAUTO_COUNT>
-1

> <PUBCHEM_NONSTANDARDBOND>
1  4  6
1  5  6

> <PUBCHEM_COORDINATE_TYPE>
1
5
255

$$$$
