25589
  -OEChem-08152605412D

 13  6  0     0  0  0  0  0  0999 V2000
    3.7321    0.0000    0.0000 Cr  0  0  0  0  0  0  0  0  0  0  0  0
    5.4641    1.0000    0.0000 O   0  3  0  0  0  0  0  0  0  0  0  0
    2.0000   -1.0000    0.0000 O   0  3  0  0  0  0  0  0  0  0  0  0
    2.0000    1.0000    0.0000 O   0  3  0  0  0  0  0  0  0  0  0  0
    3.7321   -2.0000    0.0000 O   0  3  0  0  0  0  0  0  0  0  0  0
    3.7321    2.0000    0.0000 O   0  3  0  0  0  0  0  0  0  0  0  0
    5.4641   -1.0000    0.0000 O   0  3  0  0  0  0  0  0  0  0  0  0
    4.5981    0.5000    0.0000 C   0  5  0  0  0  0  0  0  0  0  0  0
    2.8660   -0.5000    0.0000 C   0  5  0  0  0  0  0  0  0  0  0  0
    2.8660    0.5000    0.0000 C   0  5  0  0  0  0  0  0  0  0  0  0
    3.7321   -1.0000    0.0000 C   0  5  0  0  0  0  0  0  0  0  0  0
    3.7321    1.0000    0.0000 C   0  5  0  0  0  0  0  0  0  0  0  0
    4.5981   -0.5000    0.0000 C   0  5  0  0  0  0  0  0  0  0  0  0
  2  8  3  0  0  0  0
  3  9  3  0  0  0  0
  4 10  3  0  0  0  0
  5 11  3  0  0  0  0
  6 12  3  0  0  0  0
  7 13  3  0  0  0  0
M  CHG  8   2   1   3   1   4   1   5   1   6   1   7   1   8  -1   9  -1
M  CHG  4  10  -1  11  -1  12  -1  13  -1
M  END
> <PUBCHEM_COMPOUND_CID>
25589

> <PUBCHEM_COMPOUND_CANONICALIZED>
1

> <PUBCHEM_CACTVS_COMPLEXITY>
10

> <PUBCHEM_CACTVS_HBOND_ACCEPTOR>
6

> <PUBCHEM_CACTVS_HBOND_DONOR>
0

> <PUBCHEM_CACTVS_ROTATABLE_BOND>
0

> <PUBCHEM_CACTVS_SUBSKEYS>
AAADcQBgOAAAAACAAAAAAAAAAAAAAAAAAAAAAAAAAAAAAAAAAAAAAgAAAAAAAAAAAAAAAAAAAAAAAAAAAAAAAAAAAAAAAAAAAAAAAAAAAAAAAAAAAAAAAAAAAAAAAAAAAAAAAAAAAAAAAAAAAAAAAAAAAA==

> <PUBCHEM_IUPAC_OPENEYE_NAME>
carbon monoxide;chromium

> <PUBCHEM_IUPAC_CAS_NAME>
carbon monoxide;chromium

> <PUBCHEM_IUPAC_NAME_MARKUP>
carbon monoxide;chromium

> <PUBCHEM_IUPAC_NAME>
carbon monoxide;chromium

> <PUBCHEM_IUPAC_SYSTEMATIC_NAME>
carbon monoxide;chromium

> <PUBCHEM_IUPAC_TRADITIONAL_NAME>
carbon monoxide;chromium

> <PUBCHEM_IUPAC_INCHI>
InChI=1S/6CO.Cr/c6*1-2;

> <PUBCHEM_IUPAC_INCHIKEY>
KOTQLLUQLXWWDK-UHFFFAOYSA-N

> <PUBCHEM_EXACT_MASS>
219.909992

> <PUBCHEM_MOLECULAR_FORMULA>
C6CrO6

> <PUBCHEM_MOLECULAR_WEIGHT>
220.06

> <PUBCHEM_SMILES>
[C-]#[O+].[C-]#[O+].[C-]#[O+].[C-]#[O+].[C-]#[O+].[C-]#[O+].[Cr]

> <PUBCHEM_CONNECTIVITY_SMILES>
[C-]#[O+].[C-]#[O+].[C-]#[O+].[C-]#[O+].[C-]#[O+].[C-]#[O+].[Cr]

> <PUBCHEM_CACTVS_TPSA>
6

> <PUBCHEM_MONOISOTOPIC_WEIGHT>
219.909992

> <PUBCHEM_TOTAL_CHARGE>
0

> <PUBCHEM_HEAVY_ATOM_COUNT>
13

> <PUBCHEM_ATOM_DEF_STEREO_COUNT>
0

> <PUBCHEM_ATOM_UDEF_STEREO_COUNT>
0

> <PUBCHEM_BOND_DEF_STEREO_COUNT>
0

> <PUBCHEM_BOND_UDEF_STEREO_COUNT>
0

> <PUBCHEM_ISOTOPIC_ATOM_COUNT>
0

> <PUBCHEM_COMPONENT_COUNT>
7

> <PUBCHEM_CACTVS_TAUTO_COUNT>
-1

> <PUBCHEM_COORDINATE_TYPE>
1
5
255

$$$$
