14787
  -OEChem-08152606412D

 10  6  0     0  0  0  0  0  0999 V2000
    3.4030    0.0950    0.0000 Cr  0  0  0  0  0  0  0  0  0  0  0  0
    4.2690    0.5950    0.0000 O   0  0  0  0  0  0  0  0  0  0  0  0
    2.5369    0.5950    0.0000 O   0  0  0  0  0  0  0  0  0  0  0  0
    3.4030   -0.9050    0.0000 O   0  0  0  0  0  0  0  0  0  0  0  0
    4.8059    0.2850    0.0000 H   0  0  0  0  0  0  0  0  0  0  0  0
    4.2690    1.2150    0.0000 H   0  0  0  0  0  0  0  0  0  0  0  0
    2.0000    0.2850    0.0000 H   0  0  0  0  0  0  0  0  0  0  0  0
    2.5369    1.2150    0.0000 H   0  0  0  0  0  0  0  0  0  0  0  0
    2.8660   -1.2150    0.0000 H   0  0  0  0  0  0  0  0  0  0  0  0
    3.9399   -1.2150    0.0000 H   0  0  0  0  0  0  0  0  0  0  0  0
  2  5  1  0  0  0  0
  2  6  1  0  0  0  0
  3  7  1  0  0  0  0
  3  8  1  0  0  0  0
  4  9  1  0  0  0  0
  4 10  1  0  0  0  0
M  END
> <PUBCHEM_COMPOUND_CID>
14787

> <PUBCHEM_COMPOUND_CANONICALIZED>
1

> <PUBCHEM_CACTVS_COMPLEXITY>
3.2

> <PUBCHEM_CACTVS_HBOND_ACCEPTOR>
3

> <PUBCHEM_CACTVS_HBOND_DONOR>
3

> <PUBCHEM_CACTVS_ROTATABLE_BOND>
0

> <PUBCHEM_CACTVS_SUBSKEYS>
AAADcYAAMAAAAACAAAAAAAAAAAAAAAAAAAAAAAAAAAAAAAAAAAAAAAAACAAAAAAAAAAAAAAAAAAAAAAAAAAAAAAAAAAAAAAAAAAAAAAAAAAAAAAAAAAAAAAAAAAAAAAAAAAAAAAAAAAAAAAAAAAAAAAAAA==

> <PUBCHEM_IUPAC_OPENEYE_NAME>
chromium;trihydrate

> <PUBCHEM_IUPAC_CAS_NAME>
chromium;trihydrate

> <PUBCHEM_IUPAC_NAME_MARKUP>
chromium;trihydrate

> <PUBCHEM_IUPAC_NAME>
chromium;trihydrate

> <PUBCHEM_IUPAC_SYSTEMATIC_NAME>
chromium;trihydrate

> <PUBCHEM_IUPAC_TRADITIONAL_NAME>
chromium;trihydrate

> <PUBCHEM_IUPAC_INCHI>
InChI=1S/Cr.3H2O/h;3*1H2

> <PUBCHEM_IUPAC_INCHIKEY>
LXMQZGGLHVSEBA-UHFFFAOYSA-N

> <PUBCHEM_EXACT_MASS>
105.972199

> <PUBCHEM_MOLECULAR_FORMULA>
CrH6O3

> <PUBCHEM_MOLECULAR_WEIGHT>
106.042

> <PUBCHEM_SMILES>
O.O.O.[Cr]

> <PUBCHEM_CONNECTIVITY_SMILES>
O.O.O.[Cr]

> <PUBCHEM_CACTVS_TPSA>
3

> <PUBCHEM_MONOISOTOPIC_WEIGHT>
105.972199

> <PUBCHEM_TOTAL_CHARGE>
0

> <PUBCHEM_HEAVY_ATOM_COUNT>
4

> <PUBCHEM_ATOM_DEF_STEREO_COUNT>
0

> <PUBCHEM_ATOM_UDEF_STEREO_COUNT>
0

> <PUBCHEM_BOND_DEF_STEREO_COUNT>
0

> <PUBCHEM_BOND_UDEF_STEREO_COUNT>
0

> <PUBCHEM_ISOTOPIC_ATOM_COUNT>
0

> <PUBCHEM_COMPONENT_COUNT>
4

> <PUBCHEM_CACTVS_TAUTO_COUNT>
-1

> <PUBCHEM_NONSTANDARDBOND>
1  2  6
1  3  6
1  4  6

> <PUBCHEM_COORDINATE_TYPE>
1
5
255

$$$$
