5155129
  -OEChem-08152605452D

  4  3  0     0  0  0  0  0  0999 V2000
    3.0000    0.5000    0.0000 Br  0  0  0  0  0  0  0  0  0  0  0  0
    2.0000   -0.5000    0.0000 Br  0  0  0  0  0  0  0  0  0  0  0  0
    4.0000   -0.5000    0.0000 Br  0  0  0  0  0  0  0  0  0  0  0  0
    3.0000   -0.5000    0.0000 Cr  0  0  0  0  0  0  0  0  0  0  0  0
  1  4  1  0  0  0  0
  2  4  1  0  0  0  0
  3  4  1  0  0  0  0
M  END
> <PUBCHEM_COMPOUND_CID>
5155129

> <PUBCHEM_COMPOUND_CANONICALIZED>
1

> <PUBCHEM_CACTVS_COMPLEXITY>
8

> <PUBCHEM_CACTVS_HBOND_ACCEPTOR>
0

> <PUBCHEM_CACTVS_HBOND_DONOR>
0

> <PUBCHEM_CACTVS_ROTATABLE_BOND>
0

> <PUBCHEM_CACTVS_SUBSKEYS>
AAADcQAAAAAAGACAAAAAAAAAAAAAAAAAAAAAAAAAAAAAAAAAAAAAAAAAAAAAAAAAAAAAAAAAAAAAAAAAAAAAAAAAAAAAAAAAAAAAAAAAAAAAAAAAAAAAAAAAAAAAAAAAAAAAAAAAAAAAAAAAAAAAAAAAAA==

> <PUBCHEM_IUPAC_OPENEYE_NAME>
tribromochromium

> <PUBCHEM_IUPAC_CAS_NAME>
tribromochromium

> <PUBCHEM_IUPAC_NAME_MARKUP>
tribromochromium

> <PUBCHEM_IUPAC_NAME>
tribromochromium

> <PUBCHEM_IUPAC_SYSTEMATIC_NAME>
tris(bromanyl)chromium

> <PUBCHEM_IUPAC_TRADITIONAL_NAME>
tribromochromium

> <PUBCHEM_IUPAC_INCHI>
InChI=1S/3BrH.Cr/h3*1H;/q;;;+3/p-3

> <PUBCHEM_IUPAC_INCHIKEY>
UZDWIWGMKWZEPE-UHFFFAOYSA-K

> <PUBCHEM_EXACT_MASS>
290.69347

> <PUBCHEM_MOLECULAR_FORMULA>
Br3Cr

> <PUBCHEM_MOLECULAR_WEIGHT>
291.71

> <PUBCHEM_SMILES>
[Cr](Br)(Br)Br

> <PUBCHEM_CONNECTIVITY_SMILES>
[Cr](Br)(Br)Br

> <PUBCHEM_CACTVS_TPSA>
0

> <PUBCHEM_MONOISOTOPIC_WEIGHT>
288.69552

> <PUBCHEM_TOTAL_CHARGE>
0

> <PUBCHEM_HEAVY_ATOM_COUNT>
4

> <PUBCHEM_ATOM_DEF_STEREO_COUNT>
0

> <PUBCHEM_ATOM_UDEF_STEREO_COUNT>
0

> <PUBCHEM_BOND_DEF_STEREO_COUNT>
0

> <PUBCHEM_BOND_UDEF_STEREO_COUNT>
0

> <PUBCHEM_ISOTOPIC_ATOM_COUNT>
0

> <PUBCHEM_COMPONENT_COUNT>
1

> <PUBCHEM_CACTVS_TAUTO_COUNT>
-1

> <PUBCHEM_COORDINATE_TYPE>
1
5
255

$$$$
