417
  -OEChem-08152602453D

 16 15  0     0  0  0  0  0  0999 V2000
   -1.2735    2.2287    0.2931 Cl  0  0  0  0  0  0  0  0  0  0  0  0
   -3.2419   -1.7831   -0.2529 O   0  0  0  0  0  0  0  0  0  0  0  0
    3.6987   -1.3251    0.5161 O   0  0  0  0  0  0  0  0  0  0  0  0
   -3.6038    0.4112    0.2306 O   0  0  0  0  0  0  0  0  0  0  0  0
    3.6785    0.6860   -0.5610 O   0  0  0  0  0  0  0  0  0  0  0  0
   -0.6114    0.6555   -0.0303 C   0  0  0  0  0  0  0  0  0  0  0  0
    0.8320    0.6428   -0.2046 C   0  0  0  0  0  0  0  0  0  0  0  0
   -1.3719   -0.4441   -0.1737 C   0  0  0  0  0  0  0  0  0  0  0  0
    1.6427   -0.3371    0.2206 C   0  0  0  0  0  0  0  0  0  0  0  0
   -2.8468   -0.5053   -0.0349 C   0  0  0  0  0  0  0  0  0  0  0  0
    3.0975   -0.2294   -0.0030 C   0  0  0  0  0  0  0  0  0  0  0  0
    1.2508    1.5144   -0.7036 H   0  0  0  0  0  0  0  0  0  0  0  0
   -0.8983   -1.3939   -0.4164 H   0  0  0  0  0  0  0  0  0  0  0  0
    1.2691   -1.2137    0.7396 H   0  0  0  0  0  0  0  0  0  0  0  0
   -4.2143   -1.8853   -0.1727 H   0  0  0  0  0  0  0  0  0  0  0  0
    4.6718   -1.3033    0.3931 H   0  0  0  0  0  0  0  0  0  0  0  0
  1  6  1  0  0  0  0
  2 10  1  0  0  0  0
  2 15  1  0  0  0  0
  3 11  1  0  0  0  0
  3 16  1  0  0  0  0
  4 10  2  0  0  0  0
  5 11  2  0  0  0  0
  6  7  1  0  0  0  0
  6  8  2  3  0  0  0
  7  9  2  3  0  0  0
  7 12  1  0  0  0  0
  8 10  1  0  0  0  0
  8 13  1  0  0  0  0
  9 11  1  0  0  0  0
  9 14  1  0  0  0  0
M  END
> <PUBCHEM_COMPOUND_CID>
417

> <PUBCHEM_CONFORMER_RMSD>
0.6

> <PUBCHEM_CONFORMER_DIVERSEORDER>
1
2
5
4
3

> <PUBCHEM_MMFF94_PARTIAL_CHARGES>
16
1 -0.14
10 0.71
11 0.71
12 0.15
13 0.15
14 0.15
15 0.5
16 0.5
2 -0.65
3 -0.65
4 -0.57
5 -0.57
6 0.14
7 -0.15
8 -0.14
9 -0.14

> <PUBCHEM_EFFECTIVE_ROTOR_COUNT>
3

> <PUBCHEM_PHARMACOPHORE_FEATURES>
6
1 2 acceptor
1 3 acceptor
1 4 acceptor
1 5 acceptor
3 2 4 10 anion
3 3 5 11 anion

> <PUBCHEM_HEAVY_ATOM_COUNT>
11

> <PUBCHEM_ATOM_DEF_STEREO_COUNT>
0

> <PUBCHEM_ATOM_UDEF_STEREO_COUNT>
0

> <PUBCHEM_BOND_DEF_STEREO_COUNT>
0

> <PUBCHEM_BOND_UDEF_STEREO_COUNT>
2

> <PUBCHEM_ISOTOPIC_ATOM_COUNT>
0

> <PUBCHEM_COMPONENT_COUNT>
1

> <PUBCHEM_CACTVS_TAUTO_COUNT>
1

> <PUBCHEM_CONFORMER_ID>
000001A100000001

> <PUBCHEM_MMFF94_ENERGY>
23.1715

> <PUBCHEM_FEATURE_SELFOVERLAP>
30.561

> <PUBCHEM_SHAPE_FINGERPRINT>
11062470 55 18113057146681765500
12932764 1 17274810342790972212
14325111 11 18408323267991329860
177051 138 18411135814609271998
18186145 218 14345792747029844660
18342897 69 18411696565101373560
19422 9 18408606959044720602
20281407 28 18343584053127807114
20871998 184 18131633374406118229
22485316 2 18410006654378990606
23402539 116 18336256899451351838
25610 137 18336831995361503892
3312278 4 18408324397583631035

> <PUBCHEM_SHAPE_MULTIPOLES>
204.77
6.75
1.67
0.66
2.64
0.49
0
-2.33
0.06
-1.02
0.11
0.13
0.03
-0.52

> <PUBCHEM_SHAPE_SELFOVERLAP>
394.3

> <PUBCHEM_SHAPE_VOLUME>
124

> <PUBCHEM_COORDINATE_TYPE>
2
5
10

$$$$
