94
  -OEChem-08152602212D

100102  0     1  0  0  0  0  0999 V2000
    7.0238    5.9254    0.0000 S   0  0  0  0  0  0  0  0  0  0  0  0
   20.2480   -3.2549    0.0000 P   0  0  0  0  0  0  0  0  0  0  0  0
   16.9977   -2.4125    0.0000 P   0  0  3  0  0  0  0  0  0  0  0  0
   15.7126   -1.2513    0.0000 P   0  0  3  0  0  0  0  0  0  0  0  0
   18.0011   -5.3333    0.0000 O   0  0  0  0  0  0  0  0  0  0  0  0
   20.3508   -4.2496    0.0000 O   0  0  0  0  0  0  0  0  0  0  0  0
   20.3470   -6.4252    0.0000 O   0  0  0  0  0  0  0  0  0  0  0  0
   17.3051   -3.3641    0.0000 O   0  0  0  0  0  0  0  0  0  0  0  0
   20.1452   -2.2602    0.0000 O   0  0  0  0  0  0  0  0  0  0  0  0
   21.2427   -3.1521    0.0000 O   0  0  0  0  0  0  0  0  0  0  0  0
   16.6903   -1.4609    0.0000 O   0  0  0  0  0  0  0  0  0  0  0  0
   19.2533   -3.3577    0.0000 O   0  0  0  0  0  0  0  0  0  0  0  0
   14.7348   -1.0417    0.0000 O   0  0  0  0  0  0  0  0  0  0  0  0
   16.0461   -2.7199    0.0000 O   0  0  0  0  0  0  0  0  0  0  0  0
   11.8014   -0.4129    0.0000 O   0  0  0  0  0  0  0  0  0  0  0  0
   17.9493   -2.1052    0.0000 O   0  0  0  0  0  0  0  0  0  0  0  0
   15.9222   -0.2736    0.0000 O   0  0  0  0  0  0  0  0  0  0  0  0
   15.5030   -2.2291    0.0000 O   0  0  0  0  0  0  0  0  0  0  0  0
   12.8349    2.0226    0.0000 O   0  0  0  0  0  0  0  0  0  0  0  0
   10.2646    4.3450    0.0000 O   0  0  0  0  0  0  0  0  0  0  0  0
    5.3756    5.3931    0.0000 O   0  0  0  0  0  0  0  0  0  0  0  0
    4.0905    6.5542    0.0000 O   0  0  0  0  0  0  0  0  0  0  0  0
    2.1906    9.6186    0.0000 O   0  0  0  0  0  0  0  0  0  0  0  0
    3.8388   10.1510    0.0000 O   0  0  0  0  0  0  0  0  0  0  0  0
   18.2768   -7.0939    0.0000 N   0  0  0  0  0  0  0  0  0  0  0  0
   18.2768   -8.7033    0.0000 N   0  0  0  0  0  0  0  0  0  0  0  0
   16.4645   -6.8986    0.0000 N   0  0  0  0  0  0  0  0  0  0  0  0
   15.5985   -8.3986    0.0000 N   0  0  0  0  0  0  0  0  0  0  0  0
   16.4645   -9.8986    0.0000 N   0  0  0  0  0  0  0  0  0  0  0  0
   11.1867    1.4903    0.0000 N   0  0  0  0  0  0  0  0  0  0  0  0
    8.6164    3.8127    0.0000 N   0  0  0  0  0  0  0  0  0  0  0  0
   19.5408   -4.8360    0.0000 C   0  0  3  0  0  0  0  0  0  0  0  0
   19.5390   -5.8360    0.0000 C   0  0  3  0  0  0  0  0  0  0  0  0
   18.5902   -4.5253    0.0000 C   0  0  3  0  0  0  0  0  0  0  0  0
   18.5874   -6.1434    0.0000 C   0  0  3  0  0  0  0  0  0  0  0  0
   18.2829   -3.5737    0.0000 C   0  0  0  0  0  0  0  0  0  0  0  0
   17.3306   -7.3986    0.0000 C   0  0  0  0  0  0  0  0  0  0  0  0
   18.8604   -7.8986    0.0000 C   0  0  0  0  0  0  0  0  0  0  0  0
   17.3306   -8.3986    0.0000 C   0  0  0  0  0  0  0  0  0  0  0  0
   13.4496    0.1195    0.0000 C   0  0  0  0  0  0  0  0  0  0  0  0
   12.4718    0.3291    0.0000 C   0  0  3  0  0  0  0  0  0  0  0  0
   14.4274   -0.0901    0.0000 C   0  0  0  0  0  0  0  0  0  0  0  0
   16.4645   -8.8986    0.0000 C   0  0  0  0  0  0  0  0  0  0  0  0
   13.6592    1.0973    0.0000 C   0  0  0  0  0  0  0  0  0  0  0  0
   13.2400   -0.8583    0.0000 C   0  0  0  0  0  0  0  0  0  0  0  0
   15.5985   -7.3986    0.0000 C   0  0  0  0  0  0  0  0  0  0  0  0
   12.1645    1.2807    0.0000 C   0  0  0  0  0  0  0  0  0  0  0  0
   10.8793    2.4419    0.0000 C   0  0  0  0  0  0  0  0  0  0  0  0
    9.9015    2.6515    0.0000 C   0  0  0  0  0  0  0  0  0  0  0  0
    9.5941    3.6030    0.0000 C   0  0  0  0  0  0  0  0  0  0  0  0
    8.3090    4.7642    0.0000 C   0  0  0  0  0  0  0  0  0  0  0  0
    7.3312    4.9738    0.0000 C   0  0  0  0  0  0  0  0  0  0  0  0
    6.0460    6.1350    0.0000 C   0  0  0  0  0  0  0  0  0  0  0  0
    5.7387    7.0866    0.0000 C   0  0  0  0  0  0  0  0  0  0  0  0
    4.7609    7.2962    0.0000 C   0  0  0  0  0  0  0  0  0  0  0  0
    4.4535    8.2478    0.0000 C   0  0  0  0  0  0  0  0  0  0  0  0
    3.4757    8.4574    0.0000 C   0  0  0  0  0  0  0  0  0  0  0  0
    3.1684    9.4090    0.0000 C   0  0  0  0  0  0  0  0  0  0  0  0
   20.0927   -5.1184    0.0000 H   0  0  0  0  0  0  0  0  0  0  0  0
   20.0919   -5.5555    0.0000 H   0  0  0  0  0  0  0  0  0  0  0  0
   17.9780   -4.4273    0.0000 H   0  0  0  0  0  0  0  0  0  0  0  0
   19.0251   -6.5825    0.0000 H   0  0  0  0  0  0  0  0  0  0  0  0
   18.8970   -3.4885    0.0000 H   0  0  0  0  0  0  0  0  0  0  0  0
   18.3056   -2.9541    0.0000 H   0  0  0  0  0  0  0  0  0  0  0  0
   20.9139   -6.1740    0.0000 H   0  0  0  0  0  0  0  0  0  0  0  0
   19.4804   -7.8986    0.0000 H   0  0  0  0  0  0  0  0  0  0  0  0
   11.8656    0.4590    0.0000 H   0  0  0  0  0  0  0  0  0  0  0  0
   15.0415   -0.0049    0.0000 H   0  0  0  0  0  0  0  0  0  0  0  0
   14.4501    0.5294    0.0000 H   0  0  0  0  0  0  0  0  0  0  0  0
   14.2654    0.9673    0.0000 H   0  0  0  0  0  0  0  0  0  0  0  0
   13.7892    1.7035    0.0000 H   0  0  0  0  0  0  0  0  0  0  0  0
   13.0530    1.2272    0.0000 H   0  0  0  0  0  0  0  0  0  0  0  0
   12.6338   -0.7284    0.0000 H   0  0  0  0  0  0  0  0  0  0  0  0
   13.1101   -1.4646    0.0000 H   0  0  0  0  0  0  0  0  0  0  0  0
   13.8462   -0.9883    0.0000 H   0  0  0  0  0  0  0  0  0  0  0  0
   20.6474   -1.8966    0.0000 H   0  0  0  0  0  0  0  0  0  0  0  0
   21.6062   -3.6543    0.0000 H   0  0  0  0  0  0  0  0  0  0  0  0
   15.0616   -7.0886    0.0000 H   0  0  0  0  0  0  0  0  0  0  0  0
   15.9162   -3.3261    0.0000 H   0  0  0  0  0  0  0  0  0  0  0  0
   15.9276  -10.2086    0.0000 H   0  0  0  0  0  0  0  0  0  0  0  0
   17.0015  -10.2086    0.0000 H   0  0  0  0  0  0  0  0  0  0  0  0
   11.1952   -0.2830    0.0000 H   0  0  0  0  0  0  0  0  0  0  0  0
   10.7710    1.0302    0.0000 H   0  0  0  0  0  0  0  0  0  0  0  0
   11.4934    2.5271    0.0000 H   0  0  0  0  0  0  0  0  0  0  0  0
   10.9020    3.0614    0.0000 H   0  0  0  0  0  0  0  0  0  0  0  0
   16.5121   -0.0830    0.0000 H   0  0  0  0  0  0  0  0  0  0  0  0
    9.2874    2.5662    0.0000 H   0  0  0  0  0  0  0  0  0  0  0  0
    9.8788    2.0319    0.0000 H   0  0  0  0  0  0  0  0  0  0  0  0
    8.2007    3.3526    0.0000 H   0  0  0  0  0  0  0  0  0  0  0  0
    8.9231    4.8495    0.0000 H   0  0  0  0  0  0  0  0  0  0  0  0
    8.3317    5.3838    0.0000 H   0  0  0  0  0  0  0  0  0  0  0  0
    6.7171    4.8886    0.0000 H   0  0  0  0  0  0  0  0  0  0  0  0
    7.3085    4.3543    0.0000 H   0  0  0  0  0  0  0  0  0  0  0  0
    6.3528    7.1719    0.0000 H   0  0  0  0  0  0  0  0  0  0  0  0
    5.7614    7.7062    0.0000 H   0  0  0  0  0  0  0  0  0  0  0  0
    5.0676    8.3330    0.0000 H   0  0  0  0  0  0  0  0  0  0  0  0
    4.4762    8.8674    0.0000 H   0  0  0  0  0  0  0  0  0  0  0  0
    2.8616    8.3722    0.0000 H   0  0  0  0  0  0  0  0  0  0  0  0
    3.4530    7.8378    0.0000 H   0  0  0  0  0  0  0  0  0  0  0  0
    2.0000   10.2086    0.0000 H   0  0  0  0  0  0  0  0  0  0  0  0
  1 52  1  0  0  0  0
  1 53  1  0  0  0  0
  2  6  1  0  0  0  0
  2  9  1  0  0  0  0
  2 10  1  0  0  0  0
  2 12  2  0  0  0  0
  3  8  1  0  0  0  0
  3 11  1  0  0  0  0
  3 14  1  0  0  0  0
  3 16  2  0  0  0  0
  4 11  1  0  0  0  0
  4 13  1  0  0  0  0
  4 17  1  0  0  0  0
  4 18  2  0  0  0  0
  5 34  1  0  0  0  0
  5 35  1  0  0  0  0
  6 32  1  0  0  0  0
  7 33  1  0  0  0  0
  7 65  1  0  0  0  0
  8 36  1  0  0  0  0
  9 76  1  0  0  0  0
 10 77  1  0  0  0  0
 13 42  1  0  0  0  0
 14 79  1  0  0  0  0
 15 41  1  0  0  0  0
 15 82  1  0  0  0  0
 17 86  1  0  0  0  0
 19 47  2  0  0  0  0
 20 50  2  0  0  0  0
 21 53  2  0  0  0  0
 22 55  2  0  0  0  0
 23 58  1  0  0  0  0
 23100  1  0  0  0  0
 24 58  2  0  0  0  0
 25 35  1  0  0  0  0
 25 37  1  0  0  0  0
 25 38  1  0  0  0  0
 26 38  2  0  0  0  0
 26 39  1  0  0  0  0
 27 37  2  0  0  0  0
 27 46  1  0  0  0  0
 28 43  1  0  0  0  0
 28 46  2  0  0  0  0
 29 43  1  0  0  0  0
 29 80  1  0  0  0  0
 29 81  1  0  0  0  0
 30 47  1  0  0  0  0
 30 48  1  0  0  0  0
 30 83  1  0  0  0  0
 31 50  1  0  0  0  0
 31 51  1  0  0  0  0
 31 89  1  0  0  0  0
 32 33  1  0  0  0  0
 32 34  1  0  0  0  0
 32 59  1  0  0  0  0
 33 35  1  0  0  0  0
 33 60  1  0  0  0  0
 34 36  1  0  0  0  0
 34 61  1  0  0  0  0
 35 62  1  0  0  0  0
 36 63  1  0  0  0  0
 36 64  1  0  0  0  0
 37 39  1  0  0  0  0
 38 66  1  0  0  0  0
 39 43  2  0  0  0  0
 40 41  1  0  0  0  0
 40 42  1  0  0  0  0
 40 44  1  0  0  0  0
 40 45  1  0  0  0  0
 41 47  1  0  0  0  0
 41 67  1  0  0  0  0
 42 68  1  0  0  0  0
 42 69  1  0  0  0  0
 44 70  1  0  0  0  0
 44 71  1  0  0  0  0
 44 72  1  0  0  0  0
 45 73  1  0  0  0  0
 45 74  1  0  0  0  0
 45 75  1  0  0  0  0
 46 78  1  0  0  0  0
 48 49  1  0  0  0  0
 48 84  1  0  0  0  0
 48 85  1  0  0  0  0
 49 50  1  0  0  0  0
 49 87  1  0  0  0  0
 49 88  1  0  0  0  0
 51 52  1  0  0  0  0
 51 90  1  0  0  0  0
 51 91  1  0  0  0  0
 52 92  1  0  0  0  0
 52 93  1  0  0  0  0
 53 54  1  0  0  0  0
 54 55  1  0  0  0  0
 54 94  1  0  0  0  0
 54 95  1  0  0  0  0
 55 56  1  0  0  0  0
 56 57  1  0  0  0  0
 56 96  1  0  0  0  0
 56 97  1  0  0  0  0
 57 58  1  0  0  0  0
 57 98  1  0  0  0  0
 57 99  1  0  0  0  0
M  END
> <PUBCHEM_COMPOUND_CID>
94

> <PUBCHEM_COMPOUND_CANONICALIZED>
1

> <PUBCHEM_CACTVS_COMPLEXITY>
1630

> <PUBCHEM_CACTVS_HBOND_ACCEPTOR>
25

> <PUBCHEM_CACTVS_HBOND_DONOR>
10

> <PUBCHEM_CACTVS_ROTATABLE_BOND>
25

> <PUBCHEM_CACTVS_SUBSKEYS>
AAADcfB7vgNAAAAAAAAAAAAAAAAAAWJAAAAsAAAAAAAAAFgB+AAAHgQQCCAADhzl1waH+L/MFxioQYfxfIKAgC0RELABUKFoVBCDWBpoyEAeRAgPFgLzACH7eAIJAAAAAAAAAAAAAAAAAAAAAAAAAAAAAA==

> <PUBCHEM_IUPAC_OPENEYE_NAME>
6-[2-[3-[[4-[[[5-(6-aminopurin-9-yl)-4-hydroxy-3-phosphonooxy-tetrahydrofuran-2-yl]methoxy-hydroxy-phosphoryl]oxy-hydroxy-phosphoryl]oxy-2-hydroxy-3,3-dimethyl-butanoyl]amino]propanoylamino]ethylsulfanyl]-4,6-dioxo-hexanoic acid

> <PUBCHEM_IUPAC_CAS_NAME>
6-[2-[[3-[[4-[[[5-(6-aminopurin-9-yl)-4-hydroxy-3-phosphonooxy-2-oxolanyl]methoxy-hydroxyphosphoryl]oxy-hydroxyphosphoryl]oxy-2-hydroxy-3,3-dimethyl-1-oxobutyl]amino]-1-oxopropyl]amino]ethylthio]-4,6-dioxohexanoic acid

> <PUBCHEM_IUPAC_NAME_MARKUP>
6-[2-[3-[[4-[[[5-(6-aminopurin-9-yl)-4-hydroxy-3-phosphonooxyoxolan-2-yl]methoxy-hydroxyphosphoryl]oxy-hydroxyphosphoryl]oxy-2-hydroxy-3,3-dimethylbutanoyl]amino]propanoylamino]ethylsulfanyl]-4,6-dioxohexanoic acid

> <PUBCHEM_IUPAC_NAME>
6-[2-[3-[[4-[[[5-(6-aminopurin-9-yl)-4-hydroxy-3-phosphonooxyoxolan-2-yl]methoxy-hydroxyphosphoryl]oxy-hydroxyphosphoryl]oxy-2-hydroxy-3,3-dimethylbutanoyl]amino]propanoylamino]ethylsulfanyl]-4,6-dioxohexanoic acid

> <PUBCHEM_IUPAC_SYSTEMATIC_NAME>
6-[2-[3-[[4-[[[5-(6-aminopurin-9-yl)-4-oxidanyl-3-phosphonooxy-oxolan-2-yl]methoxy-oxidanyl-phosphoryl]oxy-oxidanyl-phosphoryl]oxy-3,3-dimethyl-2-oxidanyl-butanoyl]amino]propanoylamino]ethylsulfanyl]-4,6-bis(oxidanylidene)hexanoic acid

> <PUBCHEM_IUPAC_TRADITIONAL_NAME>
6-[2-[3-[[4-[[(5-adenin-9-yl-4-hydroxy-3-phosphonooxy-tetrahydrofuran-2-yl)methoxy-hydroxy-phosphoryl]oxy-hydroxy-phosphoryl]oxy-2-hydroxy-3,3-dimethyl-butanoyl]amino]propanoylamino]ethylthio]-4,6-diketo-hexanoic acid

> <PUBCHEM_IUPAC_INCHI>
InChI=1S/C27H42N7O20P3S/c1-27(2,22(41)25(42)30-6-5-16(36)29-7-8-58-18(39)9-14(35)3-4-17(37)38)11-51-57(48,49)54-56(46,47)50-10-15-21(53-55(43,44)45)20(40)26(52-15)34-13-33-19-23(28)31-12-32-24(19)34/h12-13,15,20-22,26,40-41H,3-11H2,1-2H3,(H,29,36)(H,30,42)(H,37,38)(H,46,47)(H,48,49)(H2,28,31,32)(H2,43,44,45)

> <PUBCHEM_IUPAC_INCHIKEY>
VKKKAAPGXHWXOO-UHFFFAOYSA-N

> <PUBCHEM_XLOGP3_AA>
-6.4

> <PUBCHEM_EXACT_MASS>
909.14181892

> <PUBCHEM_MOLECULAR_FORMULA>
C27H42N7O20P3S

> <PUBCHEM_MOLECULAR_WEIGHT>
909.6

> <PUBCHEM_SMILES>
CC(C)(COP(=O)(O)OP(=O)(O)OCC1C(C(C(O1)N2C=NC3=C(N=CN=C32)N)O)OP(=O)(O)O)C(C(=O)NCCC(=O)NCCSC(=O)CC(=O)CCC(=O)O)O

> <PUBCHEM_CONNECTIVITY_SMILES>
CC(C)(COP(=O)(O)OP(=O)(O)OCC1C(C(C(O1)N2C=NC3=C(N=CN=C32)N)O)OP(=O)(O)O)C(C(=O)NCCC(=O)NCCSC(=O)CC(=O)CCC(=O)O)O

> <PUBCHEM_CACTVS_TPSA>
443

> <PUBCHEM_MONOISOTOPIC_WEIGHT>
909.14181892

> <PUBCHEM_TOTAL_CHARGE>
0

> <PUBCHEM_HEAVY_ATOM_COUNT>
58

> <PUBCHEM_ATOM_DEF_STEREO_COUNT>
0

> <PUBCHEM_ATOM_UDEF_STEREO_COUNT>
5

> <PUBCHEM_BOND_DEF_STEREO_COUNT>
0

> <PUBCHEM_BOND_UDEF_STEREO_COUNT>
0

> <PUBCHEM_ISOTOPIC_ATOM_COUNT>
0

> <PUBCHEM_COMPONENT_COUNT>
1

> <PUBCHEM_CACTVS_TAUTO_COUNT>
-1

> <PUBCHEM_COORDINATE_TYPE>
1
5
255

> <PUBCHEM_BONDANNOTATIONS>
41  15  3
35  25  3
25  37  8
25  38  8
26  38  8
26  39  8
27  37  8
27  46  8
28  43  8
28  46  8
34  36  3
37  39  8
39  43  8
32  6  3
33  7  3

$$$$
