62402
  -OEChem-08152604512D

  2  1  0     0  0  0  0  0  0999 V2000
    2.0000    0.0000    0.0000 Hg  0  0  0  0  0  0  0  0  0  0  0  0
    3.0000    0.0000    0.0000 S   0  0  0  0  0  0  0  0  0  0  0  0
  1  2  2  0  0  0  0
M  END
> <PUBCHEM_COMPOUND_CID>
62402

> <PUBCHEM_COMPOUND_CANONICALIZED>
1

> <PUBCHEM_CACTVS_COMPLEXITY>
2

> <PUBCHEM_CACTVS_HBOND_ACCEPTOR>
1

> <PUBCHEM_CACTVS_HBOND_DONOR>
0

> <PUBCHEM_CACTVS_ROTATABLE_BOND>
0

> <PUBCHEM_CACTVS_SUBSKEYS>
AAADcQAAAABAAAAAAAAAAQAAAAAAAAAAAAAAAAAAAAAAAAAAAAAAAAAAAAAAAAAAAAAAAAAAAAAAAAAAAAAAAAAAAAAAAAAAAAAAAAAAAAAAAAAAAAAAAAAAAAAAAAAAAAAAAAAAAAAAAAAAAAAAAAAAAA==

> <PUBCHEM_IUPAC_OPENEYE_NAME>
thioxomercury

> <PUBCHEM_IUPAC_CAS_NAME>
sulfanylidenemercury

> <PUBCHEM_IUPAC_NAME_MARKUP>
sulfanylidenemercury

> <PUBCHEM_IUPAC_NAME>
sulfanylidenemercury

> <PUBCHEM_IUPAC_SYSTEMATIC_NAME>
sulfanylidenemercury

> <PUBCHEM_IUPAC_TRADITIONAL_NAME>
thioxomercury

> <PUBCHEM_IUPAC_INCHI>
InChI=1S/Hg.S

> <PUBCHEM_IUPAC_INCHIKEY>
QXKXDIKCIPXUPL-UHFFFAOYSA-N

> <PUBCHEM_EXACT_MASS>
233.942715

> <PUBCHEM_MOLECULAR_FORMULA>
HgS

> <PUBCHEM_MOLECULAR_WEIGHT>
232.66

> <PUBCHEM_SMILES>
S=[Hg]

> <PUBCHEM_CONNECTIVITY_SMILES>
S=[Hg]

> <PUBCHEM_CACTVS_TPSA>
32.1

> <PUBCHEM_MONOISOTOPIC_WEIGHT>
233.942715

> <PUBCHEM_TOTAL_CHARGE>
0

> <PUBCHEM_HEAVY_ATOM_COUNT>
2

> <PUBCHEM_ATOM_DEF_STEREO_COUNT>
0

> <PUBCHEM_ATOM_UDEF_STEREO_COUNT>
0

> <PUBCHEM_BOND_DEF_STEREO_COUNT>
0

> <PUBCHEM_BOND_UDEF_STEREO_COUNT>
0

> <PUBCHEM_ISOTOPIC_ATOM_COUNT>
0

> <PUBCHEM_COMPONENT_COUNT>
1

> <PUBCHEM_CACTVS_TAUTO_COUNT>
-1

> <PUBCHEM_COORDINATE_TYPE>
1
5
255

$$$$
