318
  -OEChem-08152602372D

143146  0     1  0  0  0  0  0999 V2000
    8.7784    1.3271    0.0000 Co  0  0  0  0  0  0  0  0  0  0  0  0
   12.6697   -0.9028    0.0000 O   0  0  0  0  0  0  0  0  0  0  0  0
    8.4884   -3.3320    0.0000 O   0  0  0  0  0  0  0  0  0  0  0  0
   10.9756    5.1378    0.0000 O   0  0  0  0  0  0  0  0  0  0  0  0
    8.0200   -4.4828    0.0000 O   0  0  0  0  0  0  0  0  0  0  0  0
   14.0877    3.6141    0.0000 O   0  0  0  0  0  0  0  0  0  0  0  0
    3.5421   -1.0016    0.0000 O   0  0  0  0  0  0  0  0  0  0  0  0
    6.5299    6.5282    0.0000 O   0  0  0  0  0  0  0  0  0  0  0  0
    5.1703   -6.6916    0.0000 O   0  0  0  0  0  0  0  0  0  0  0  0
    8.8152   -0.0102    0.0000 N   0  0  0  0  0  0  0  0  0  0  0  0
   10.2411    1.2902    0.0000 N   0  0  0  0  0  0  0  0  0  0  0  0
    7.3875    1.2902    0.0000 N   0  0  0  0  0  0  0  0  0  0  0  0
    8.7834    2.5906    0.0000 N   0  0  0  0  0  0  0  0  0  0  0  0
   14.1848   -0.0635    0.0000 N   0  0  0  0  0  0  0  0  0  0  0  0
   10.0750   -4.0267    0.0000 N   0  0  0  0  0  0  0  0  0  0  0  0
   10.0872    6.6246    0.0000 N   0  0  0  0  0  0  0  0  0  0  0  0
    6.2979   -4.2982    0.0000 N   0  0  0  0  0  0  0  0  0  0  0  0
   15.1367    2.2359    0.0000 N   0  0  0  0  0  0  0  0  0  0  0  0
    2.4934    0.3769    0.0000 N   0  0  0  0  0  0  0  0  0  0  0  0
    5.1348    5.5016    0.0000 N   0  0  0  0  0  0  0  0  0  0  0  0
   10.8119    0.5923    0.0000 C   0  0  3  0  0  0  0  0  0  0  0  0
    9.5766   -0.5810    0.0000 C   0  0  3  0  0  0  0  0  0  0  0  0
   11.7005    0.8466    0.0000 C   0  0  3  0  0  0  0  0  0  0  0  0
    9.2905   -1.4999    0.0000 C   0  0  3  0  0  0  0  0  0  0  0  0
    8.0536   -0.6128    0.0000 C   0  0  0  0  0  0  0  0  0  0  0  0
    8.3398   -1.4999    0.0000 C   0  0  3  0  0  0  0  0  0  0  0  0
    6.8486    0.5604    0.0000 C   0  0  3  0  0  0  0  0  0  0  0  0
   11.7005    1.7972    0.0000 C   0  0  3  0  0  0  0  0  0  0  0  0
   10.7801    2.0516    0.0000 C   0  0  0  0  0  0  0  0  0  0  0  0
    7.1347   -0.3266    0.0000 C   0  0  3  0  0  0  0  0  0  0  0  0
    6.8486    2.0198    0.0000 C   0  0  0  0  0  0  0  0  0  0  0  0
    5.9298    0.8148    0.0000 C   0  0  3  0  0  0  0  0  0  0  0  0
    5.9298    1.7654    0.0000 C   0  0  0  0  0  0  0  0  0  0  0  0
    9.5766    3.2249    0.0000 C   0  0  0  0  0  0  0  0  0  0  0  0
    8.0218    3.1931    0.0000 C   0  0  0  0  0  0  0  0  0  0  0  0
   11.3081   -0.2759    0.0000 C   0  0  0  0  0  0  0  0  0  0  0  0
    9.2587    4.1120    0.0000 C   0  0  3  0  0  0  0  0  0  0  0  0
   10.4955    2.9387    0.0000 C   0  0  0  0  0  0  0  0  0  0  0  0
    7.1030    2.9387    0.0000 C   0  0  0  0  0  0  0  0  0  0  0  0
    8.3080    4.1120    0.0000 C   0  0  3  0  0  0  0  0  0  0  0  0
   12.7003    0.8290    0.0000 C   0  0  0  0  0  0  0  0  0  0  0  0
   11.9926   -0.1097    0.0000 C   0  0  0  0  0  0  0  0  0  0  0  0
    9.8833   -2.3053    0.0000 C   0  0  0  0  0  0  0  0  0  0  0  0
    8.2332   -2.4942    0.0000 C   0  0  0  0  0  0  0  0  0  0  0  0
    7.3612   -1.7058    0.0000 C   0  0  0  0  0  0  0  0  0  0  0  0
   12.4962    2.4029    0.0000 C   0  0  0  0  0  0  0  0  0  0  0  0
    6.4640   -1.0684    0.0000 C   0  0  0  0  0  0  0  0  0  0  0  0
    5.1339    0.2094    0.0000 C   0  0  0  0  0  0  0  0  0  0  0  0
    4.9300    1.7875    0.0000 C   0  0  0  0  0  0  0  0  0  0  0  0
    5.6418    2.7231    0.0000 C   0  0  0  0  0  0  0  0  0  0  0  0
    9.2437    5.1119    0.0000 C   0  0  0  0  0  0  0  0  0  0  0  0
    7.7153    4.9174    0.0000 C   0  0  0  0  0  0  0  0  0  0  0  0
   10.2050    4.4352    0.0000 C   0  0  0  0  0  0  0  0  0  0  0  0
   11.1674    3.6793    0.0000 C   0  0  0  0  0  0  0  0  0  0  0  0
    7.3188   -2.8990    0.0000 C   0  0  0  0  0  0  0  0  0  0  0  0
   13.1849   -0.0458    0.0000 C   0  0  0  0  0  0  0  0  0  0  0  0
   13.4186    2.0166    0.0000 C   0  0  0  0  0  0  0  0  0  0  0  0
    9.4822   -3.2213    0.0000 C   0  0  0  0  0  0  0  0  0  0  0  0
    4.2116    0.5959    0.0000 C   0  0  0  0  0  0  0  0  0  0  0  0
    6.7214    4.8068    0.0000 C   0  0  0  0  0  0  0  0  0  0  0  0
   10.1022    5.6248    0.0000 C   0  0  0  0  0  0  0  0  0  0  0  0
    7.2123   -3.8934    0.0000 C   0  0  0  0  0  0  0  0  0  0  0  0
   14.2143    2.6222    0.0000 C   0  0  0  0  0  0  0  0  0  0  0  0
    3.4157   -0.0096    0.0000 C   0  0  0  0  0  0  0  0  0  0  0  0
    6.1287    5.6122    0.0000 C   0  0  0  0  0  0  0  0  0  0  0  0
    6.1913   -5.2925    0.0000 C   0  0  0  0  0  0  0  0  0  0  0  0
    5.2769   -5.6974    0.0000 C   0  0  3  0  0  0  0  0  0  0  0  0
    4.4691   -5.1079    0.0000 C   0  0  0  0  0  0  0  0  0  0  0  0
   10.1031   -0.9085    0.0000 H   0  0  0  0  0  0  0  0  0  0  0  0
    9.0108   -2.0532    0.0000 H   0  0  0  0  0  0  0  0  0  0  0  0
    6.4195    0.1129    0.0000 H   0  0  0  0  0  0  0  0  0  0  0  0
   11.5831    2.4060    0.0000 H   0  0  0  0  0  0  0  0  0  0  0  0
    7.5709    0.1140    0.0000 H   0  0  0  0  0  0  0  0  0  0  0  0
    5.3742    1.0902    0.0000 H   0  0  0  0  0  0  0  0  0  0  0  0
   10.7698   -0.5836    0.0000 H   0  0  0  0  0  0  0  0  0  0  0  0
   11.6157   -0.8142    0.0000 H   0  0  0  0  0  0  0  0  0  0  0  0
   11.8464    0.0317    0.0000 H   0  0  0  0  0  0  0  0  0  0  0  0
    7.0473    3.5562    0.0000 H   0  0  0  0  0  0  0  0  0  0  0  0
    6.4855    2.9944    0.0000 H   0  0  0  0  0  0  0  0  0  0  0  0
    7.6966    4.0094    0.0000 H   0  0  0  0  0  0  0  0  0  0  0  0
   13.2866    1.0307    0.0000 H   0  0  0  0  0  0  0  0  0  0  0  0
   12.6035    1.4413    0.0000 H   0  0  0  0  0  0  0  0  0  0  0  0
   11.3997   -0.2909    0.0000 H   0  0  0  0  0  0  0  0  0  0  0  0
   12.1738   -0.7027    0.0000 H   0  0  0  0  0  0  0  0  0  0  0  0
   12.5856    0.0714    0.0000 H   0  0  0  0  0  0  0  0  0  0  0  0
   10.3994   -2.6488    0.0000 H   0  0  0  0  0  0  0  0  0  0  0  0
   10.3112   -1.8566    0.0000 H   0  0  0  0  0  0  0  0  0  0  0  0
    8.3820   -3.0961    0.0000 H   0  0  0  0  0  0  0  0  0  0  0  0
    8.8518   -2.4522    0.0000 H   0  0  0  0  0  0  0  0  0  0  0  0
    7.2336   -1.0991    0.0000 H   0  0  0  0  0  0  0  0  0  0  0  0
    6.7545   -1.8334    0.0000 H   0  0  0  0  0  0  0  0  0  0  0  0
    7.4889   -2.3125    0.0000 H   0  0  0  0  0  0  0  0  0  0  0  0
   12.8314    2.9245    0.0000 H   0  0  0  0  0  0  0  0  0  0  0  0
   12.0408    2.8235    0.0000 H   0  0  0  0  0  0  0  0  0  0  0  0
    6.0042   -0.6525    0.0000 H   0  0  0  0  0  0  0  0  0  0  0  0
    6.0482   -1.5282    0.0000 H   0  0  0  0  0  0  0  0  0  0  0  0
    6.9239   -1.4842    0.0000 H   0  0  0  0  0  0  0  0  0  0  0  0
    4.7986   -0.3122    0.0000 H   0  0  0  0  0  0  0  0  0  0  0  0
    5.5892   -0.2114    0.0000 H   0  0  0  0  0  0  0  0  0  0  0  0
    4.9437    2.4073    0.0000 H   0  0  0  0  0  0  0  0  0  0  0  0
    4.3101    1.8012    0.0000 H   0  0  0  0  0  0  0  0  0  0  0  0
    4.9163    1.1676    0.0000 H   0  0  0  0  0  0  0  0  0  0  0  0
    6.2355    2.9016    0.0000 H   0  0  0  0  0  0  0  0  0  0  0  0
    5.4632    3.3168    0.0000 H   0  0  0  0  0  0  0  0  0  0  0  0
    5.0480    2.5445    0.0000 H   0  0  0  0  0  0  0  0  0  0  0  0
    9.0230    5.6912    0.0000 H   0  0  0  0  0  0  0  0  0  0  0  0
    8.6348    4.9951    0.0000 H   0  0  0  0  0  0  0  0  0  0  0  0
    8.2709    5.1926    0.0000 H   0  0  0  0  0  0  0  0  0  0  0  0
    7.5408    5.5123    0.0000 H   0  0  0  0  0  0  0  0  0  0  0  0
   10.4054    3.8485    0.0000 H   0  0  0  0  0  0  0  0  0  0  0  0
   10.7918    4.6356    0.0000 H   0  0  0  0  0  0  0  0  0  0  0  0
   10.0046    5.0219    0.0000 H   0  0  0  0  0  0  0  0  0  0  0  0
   11.6266    3.2627    0.0000 H   0  0  0  0  0  0  0  0  0  0  0  0
   11.5840    4.1385    0.0000 H   0  0  0  0  0  0  0  0  0  0  0  0
   10.7082    4.0959    0.0000 H   0  0  0  0  0  0  0  0  0  0  0  0
    7.1701   -2.2972    0.0000 H   0  0  0  0  0  0  0  0  0  0  0  0
    6.7003   -2.9410    0.0000 H   0  0  0  0  0  0  0  0  0  0  0  0
   13.0834    1.4950    0.0000 H   0  0  0  0  0  0  0  0  0  0  0  0
   13.8741    1.5959    0.0000 H   0  0  0  0  0  0  0  0  0  0  0  0
    4.5469    1.1174    0.0000 H   0  0  0  0  0  0  0  0  0  0  0  0
    3.7562    1.0166    0.0000 H   0  0  0  0  0  0  0  0  0  0  0  0
    6.1658    4.5316    0.0000 H   0  0  0  0  0  0  0  0  0  0  0  0
    6.8960    4.2119    0.0000 H   0  0  0  0  0  0  0  0  0  0  0  0
   14.4852   -0.6058    0.0000 H   0  0  0  0  0  0  0  0  0  0  0  0
   14.5042    0.4679    0.0000 H   0  0  0  0  0  0  0  0  0  0  0  0
   10.6912   -3.9581    0.0000 H   0  0  0  0  0  0  0  0  0  0  0  0
    9.8263   -4.5946    0.0000 H   0  0  0  0  0  0  0  0  0  0  0  0
   10.6195    6.9426    0.0000 H   0  0  0  0  0  0  0  0  0  0  0  0
    9.5457    6.9266    0.0000 H   0  0  0  0  0  0  0  0  0  0  0  0
    5.7970   -3.9327    0.0000 H   0  0  0  0  0  0  0  0  0  0  0  0
   15.6301    2.6114    0.0000 H   0  0  0  0  0  0  0  0  0  0  0  0
   15.2152    1.6209    0.0000 H   0  0  0  0  0  0  0  0  0  0  0  0
    2.0000    0.0015    0.0000 H   0  0  0  0  0  0  0  0  0  0  0  0
    2.4151    0.9919    0.0000 H   0  0  0  0  0  0  0  0  0  0  0  0
    4.7674    6.0010    0.0000 H   0  0  0  0  0  0  0  0  0  0  0  0
    4.8861    4.9337    0.0000 H   0  0  0  0  0  0  0  0  0  0  0  0
    6.3400   -5.8944    0.0000 H   0  0  0  0  0  0  0  0  0  0  0  0
    6.8099   -5.2505    0.0000 H   0  0  0  0  0  0  0  0  0  0  0  0
    4.7100   -5.9483    0.0000 H   0  0  0  0  0  0  0  0  0  0  0  0
    4.8346   -4.6070    0.0000 H   0  0  0  0  0  0  0  0  0  0  0  0
    3.9683   -4.7424    0.0000 H   0  0  0  0  0  0  0  0  0  0  0  0
    4.1036   -5.6087    0.0000 H   0  0  0  0  0  0  0  0  0  0  0  0
    4.6034   -6.9426    0.0000 H   0  0  0  0  0  0  0  0  0  0  0  0
  2 56  2  0  0  0  0
  3 58  2  0  0  0  0
  4 61  2  0  0  0  0
  5 62  2  0  0  0  0
  6 63  2  0  0  0  0
  7 64  2  0  0  0  0
  8 65  2  0  0  0  0
  9 67  1  0  0  0  0
  9143  1  0  0  0  0
 10 22  1  0  0  0  0
 10 25  2  0  0  0  0
 11 21  1  0  0  0  0
 11 29  2  0  0  0  0
 12 27  1  0  0  0  0
 12 31  2  0  0  0  0
 13 34  1  0  0  0  0
 13 35  2  0  0  0  0
 14 56  1  0  0  0  0
 14124  1  0  0  0  0
 14125  1  0  0  0  0
 15 58  1  0  0  0  0
 15126  1  0  0  0  0
 15127  1  0  0  0  0
 16 61  1  0  0  0  0
 16128  1  0  0  0  0
 16129  1  0  0  0  0
 17 62  1  0  0  0  0
 17 66  1  0  0  0  0
 17130  1  0  0  0  0
 18 63  1  0  0  0  0
 18131  1  0  0  0  0
 18132  1  0  0  0  0
 19 64  1  0  0  0  0
 19133  1  0  0  0  0
 19134  1  0  0  0  0
 20 65  1  0  0  0  0
 20135  1  0  0  0  0
 20136  1  0  0  0  0
 21 22  1  0  0  0  0
 21 23  1  0  0  0  0
 21 36  1  0  0  0  0
 22 24  1  0  0  0  0
 22 69  1  0  0  0  0
 23 28  1  0  0  0  0
 23 41  1  0  0  0  0
 23 42  1  0  0  0  0
 24 26  1  0  0  0  0
 24 43  1  0  0  0  0
 24 70  1  0  0  0  0
 25 26  1  0  0  0  0
 25 30  1  0  0  0  0
 26 44  1  0  0  0  0
 26 45  1  0  0  0  0
 27 30  1  0  0  0  0
 27 32  1  0  0  0  0
 27 71  1  0  0  0  0
 28 29  1  0  0  0  0
 28 46  1  0  0  0  0
 28 72  1  0  0  0  0
 29 38  1  0  0  0  0
 30 47  1  0  0  0  0
 30 73  1  0  0  0  0
 31 33  1  0  0  0  0
 31 39  1  0  0  0  0
 32 33  1  0  0  0  0
 32 48  1  0  0  0  0
 32 74  1  0  0  0  0
 33 49  1  0  0  0  0
 33 50  1  0  0  0  0
 34 37  1  0  0  0  0
 34 38  2  3  0  0  0
 35 39  1  0  0  0  0
 35 40  1  0  0  0  0
 36 75  1  0  0  0  0
 36 76  1  0  0  0  0
 36 77  1  0  0  0  0
 37 40  1  0  0  0  0
 37 51  1  0  0  0  0
 37 53  1  0  0  0  0
 38 54  1  0  0  0  0
 39 78  1  0  0  0  0
 39 79  1  0  0  0  0
 40 52  1  0  0  0  0
 40 80  1  0  0  0  0
 41 56  1  0  0  0  0
 41 81  1  0  0  0  0
 41 82  1  0  0  0  0
 42 83  1  0  0  0  0
 42 84  1  0  0  0  0
 42 85  1  0  0  0  0
 43 58  1  0  0  0  0
 43 86  1  0  0  0  0
 43 87  1  0  0  0  0
 44 55  1  0  0  0  0
 44 88  1  0  0  0  0
 44 89  1  0  0  0  0
 45 90  1  0  0  0  0
 45 91  1  0  0  0  0
 45 92  1  0  0  0  0
 46 57  1  0  0  0  0
 46 93  1  0  0  0  0
 46 94  1  0  0  0  0
 47 95  1  0  0  0  0
 47 96  1  0  0  0  0
 47 97  1  0  0  0  0
 48 59  1  0  0  0  0
 48 98  1  0  0  0  0
 48 99  1  0  0  0  0
 49100  1  0  0  0  0
 49101  1  0  0  0  0
 49102  1  0  0  0  0
 50103  1  0  0  0  0
 50104  1  0  0  0  0
 50105  1  0  0  0  0
 51 61  1  0  0  0  0
 51106  1  0  0  0  0
 51107  1  0  0  0  0
 52 60  1  0  0  0  0
 52108  1  0  0  0  0
 52109  1  0  0  0  0
 53110  1  0  0  0  0
 53111  1  0  0  0  0
 53112  1  0  0  0  0
 54113  1  0  0  0  0
 54114  1  0  0  0  0
 54115  1  0  0  0  0
 55 62  1  0  0  0  0
 55116  1  0  0  0  0
 55117  1  0  0  0  0
 57 63  1  0  0  0  0
 57118  1  0  0  0  0
 57119  1  0  0  0  0
 59 64  1  0  0  0  0
 59120  1  0  0  0  0
 59121  1  0  0  0  0
 60 65  1  0  0  0  0
 60122  1  0  0  0  0
 60123  1  0  0  0  0
 66 67  1  0  0  0  0
 66137  1  0  0  0  0
 66138  1  0  0  0  0
 67 68  1  0  0  0  0
 67139  1  0  0  0  0
 68140  1  0  0  0  0
 68141  1  0  0  0  0
 68142  1  0  0  0  0
M  END
> <PUBCHEM_COMPOUND_CID>
318

> <PUBCHEM_COMPOUND_CANONICALIZED>
1

> <PUBCHEM_CACTVS_COMPLEXITY>
2240

> <PUBCHEM_CACTVS_HBOND_ACCEPTOR>
12

> <PUBCHEM_CACTVS_HBOND_DONOR>
8

> <PUBCHEM_CACTVS_ROTATABLE_BOND>
20

> <PUBCHEM_CACTVS_SUBSKEYS>
AAADcfB//AAAAAAQAAAAAAAAAAAAAWIECBAgQIAAAAAQIFgAAAAAHgAQCAAAD7zhgAYCAALAAgCoAwVwVAAAAAAgAAAACIE4ABgCUBIAgAAEAAAAlgCYAAMcicCfgAAAAAAAAAAAAAAAAAAAAAAAAAAAAA==

> <PUBCHEM_IUPAC_OPENEYE_NAME>
cobalt;3-[2,13,18-tris(2-amino-2-oxo-ethyl)-12,17-bis(3-amino-3-oxo-propyl)-3-[3-(2-hydroxypropylamino)-3-oxo-propyl]-3,5,8,8,13,15,18,19-octamethyl-1,2,5,6,7,10,12,17-octahydrocorrin-7-yl]propanamide

> <PUBCHEM_IUPAC_CAS_NAME>
cobalt;3-[2,13,18-tris(2-amino-2-oxoethyl)-12,17-bis(3-amino-3-oxopropyl)-3-[3-(2-hydroxypropylamino)-3-oxopropyl]-3,5,8,8,13,15,18,19-octamethyl-1,2,5,6,7,10,12,17-octahydrocorrin-7-yl]propanamide

> <PUBCHEM_IUPAC_NAME_MARKUP>
cobalt;3-[2,13,18-tris(2-amino-2-oxoethyl)-12,17-bis(3-amino-3-oxopropyl)-3-[3-(2-hydroxypropylamino)-3-oxopropyl]-3,5,8,8,13,15,18,19-octamethyl-1,2,5,6,7,10,12,17-octahydrocorrin-7-yl]propanamide

> <PUBCHEM_IUPAC_NAME>
cobalt;3-[2,13,18-tris(2-amino-2-oxoethyl)-12,17-bis(3-amino-3-oxopropyl)-3-[3-(2-hydroxypropylamino)-3-oxopropyl]-3,5,8,8,13,15,18,19-octamethyl-1,2,5,6,7,10,12,17-octahydrocorrin-7-yl]propanamide

> <PUBCHEM_IUPAC_SYSTEMATIC_NAME>
cobalt;3-[2,13,18-tris(2-azanyl-2-oxidanylidene-ethyl)-12,17-bis(3-azanyl-3-oxidanylidene-propyl)-3,5,8,8,13,15,18,19-octamethyl-3-[3-oxidanylidene-3-(2-oxidanylpropylamino)propyl]-1,2,5,6,7,10,12,17-octahydrocorrin-7-yl]propanamide

> <PUBCHEM_IUPAC_TRADITIONAL_NAME>
cobalt;3-[2,13,18-tris(2-amino-2-keto-ethyl)-12,17-bis(3-amino-3-keto-propyl)-3-[3-(2-hydroxypropylamino)-3-keto-propyl]-3,5,8,8,13,15,18,19-octamethyl-1,2,5,6,7,10,12,17-octahydrocorrin-7-yl]propionamide

> <PUBCHEM_IUPAC_INCHI>
InChI=1S/C48H75N11O8.Co/c1-23(60)22-55-38(67)16-17-45(6)29(18-35(52)64)43-48(9)47(8,21-37(54)66)28(12-15-34(51)63)40(59-48)25(3)42-46(7,20-36(53)65)26(10-13-32(49)61)30(56-42)19-31-44(4,5)27(11-14-33(50)62)39(57-31)24(2)41(45)58-43;/h23-24,26-29,39,43,60H,10-22H2,1-9H3,(H2,49,61)(H2,50,62)(H2,51,63)(H2,52,64)(H2,53,65)(H2,54,66)(H,55,67);

> <PUBCHEM_IUPAC_INCHIKEY>
FXQKCTIZFFIAQT-UHFFFAOYSA-N

> <PUBCHEM_EXACT_MASS>
992.513202

> <PUBCHEM_MOLECULAR_FORMULA>
C48H75CoN11O8

> <PUBCHEM_MOLECULAR_WEIGHT>
993.1

> <PUBCHEM_SMILES>
CC1C2C(C(C(=N2)CC3=NC(=C(C4=NC(C5C(C(C1=N5)(C)CCC(=O)NCC(C)O)CC(=O)N)(C(C4CCC(=O)N)(C)CC(=O)N)C)C)C(C3CCC(=O)N)(C)CC(=O)N)(C)C)CCC(=O)N.[Co]

> <PUBCHEM_CONNECTIVITY_SMILES>
CC1C2C(C(C(=N2)CC3=NC(=C(C4=NC(C5C(C(C1=N5)(C)CCC(=O)NCC(C)O)CC(=O)N)(C(C4CCC(=O)N)(C)CC(=O)N)C)C)C(C3CCC(=O)N)(C)CC(=O)N)(C)C)CCC(=O)N.[Co]

> <PUBCHEM_CACTVS_TPSA>
357

> <PUBCHEM_MONOISOTOPIC_WEIGHT>
992.513202

> <PUBCHEM_TOTAL_CHARGE>
0

> <PUBCHEM_HEAVY_ATOM_COUNT>
68

> <PUBCHEM_ATOM_DEF_STEREO_COUNT>
0

> <PUBCHEM_ATOM_UDEF_STEREO_COUNT>
12

> <PUBCHEM_BOND_DEF_STEREO_COUNT>
0

> <PUBCHEM_BOND_UDEF_STEREO_COUNT>
1

> <PUBCHEM_ISOTOPIC_ATOM_COUNT>
0

> <PUBCHEM_COMPONENT_COUNT>
2

> <PUBCHEM_CACTVS_TAUTO_COUNT>
-1

> <PUBCHEM_NONSTANDARDBOND>
1  10  6
1  11  6
1  12  6
1  13  6

> <PUBCHEM_COORDINATE_TYPE>
1
5
255

> <PUBCHEM_BONDANNOTATIONS>
22  10  3
27  12  3
21  36  3
23  42  3
24  43  3
26  45  3
28  46  3
30  47  3
32  48  3
34  38  1
37  53  3
40  52  3
67  9  3

$$$$
