14832
  -OEChem-08152605122D

  2  1  0     0  0  0  0  0  0999 V2000
    3.0000    0.0000    0.0000 Co  0  0  0  0  0  0  0  0  0  0  0  0
    2.0000    0.0000    0.0000 S   0  0  0  0  0  0  0  0  0  0  0  0
  1  2  2  0  0  0  0
M  END
> <PUBCHEM_COMPOUND_CID>
14832

> <PUBCHEM_COMPOUND_CANONICALIZED>
1

> <PUBCHEM_CACTVS_COMPLEXITY>
2

> <PUBCHEM_CACTVS_HBOND_ACCEPTOR>
1

> <PUBCHEM_CACTVS_HBOND_DONOR>
0

> <PUBCHEM_CACTVS_ROTATABLE_BOND>
0

> <PUBCHEM_CACTVS_SUBSKEYS>
AAADcQAAAABAAAAQAAAAAAAAAAAAAAAAAAAAAAAAAAAAAAAAAAAAAAAAAAAAAAAAAAAAAAAAAAAAAAAAAAAAAAAAAAAAAAAAAAAAAAAAAAAAAAAAAAAAAAAAAAAAAAAAAAAAAAAAAAAAAAAAAAAAAAAAAA==

> <PUBCHEM_IUPAC_OPENEYE_NAME>
thioxocobalt

> <PUBCHEM_IUPAC_CAS_NAME>
sulfanylidenecobalt

> <PUBCHEM_IUPAC_NAME_MARKUP>
sulfanylidenecobalt

> <PUBCHEM_IUPAC_NAME>
sulfanylidenecobalt

> <PUBCHEM_IUPAC_SYSTEMATIC_NAME>
sulfanylidenecobalt

> <PUBCHEM_IUPAC_TRADITIONAL_NAME>
thioxocobalt

> <PUBCHEM_IUPAC_INCHI>
InChI=1S/Co.S

> <PUBCHEM_IUPAC_INCHIKEY>
VRRFSFYSLSPWQY-UHFFFAOYSA-N

> <PUBCHEM_EXACT_MASS>
90.905265

> <PUBCHEM_MOLECULAR_FORMULA>
CoS

> <PUBCHEM_MOLECULAR_WEIGHT>
91.00

> <PUBCHEM_SMILES>
S=[Co]

> <PUBCHEM_CONNECTIVITY_SMILES>
S=[Co]

> <PUBCHEM_CACTVS_TPSA>
32.1

> <PUBCHEM_MONOISOTOPIC_WEIGHT>
90.905265

> <PUBCHEM_TOTAL_CHARGE>
0

> <PUBCHEM_HEAVY_ATOM_COUNT>
2

> <PUBCHEM_ATOM_DEF_STEREO_COUNT>
0

> <PUBCHEM_ATOM_UDEF_STEREO_COUNT>
0

> <PUBCHEM_BOND_DEF_STEREO_COUNT>
0

> <PUBCHEM_BOND_UDEF_STEREO_COUNT>
0

> <PUBCHEM_ISOTOPIC_ATOM_COUNT>
0

> <PUBCHEM_COMPONENT_COUNT>
1

> <PUBCHEM_CACTVS_TAUTO_COUNT>
-1

> <PUBCHEM_COORDINATE_TYPE>
1
5
255

$$$$
