121233614
  -OEChem-08152605172D

  5  0  0     0  0  0  0  0  0999 V2000
    2.5000    2.5000    0.0000 Co  0  2  0  0  0  0  0  0  0  0  0  0
    2.5000    5.0000    0.0000 Co  0  2  0  0  0  0  0  0  0  0  0  0
    5.0000    2.5000    0.0000 Co  0  2  0  0  0  0  0  0  0  0  0  0
    0.0000    2.5000    0.0000 B   0  0  0  0  0 15  0  0  0  0  0  0
    2.5000    0.0000    0.0000 B   0  0  0  0  0 15  0  0  0  0  0  0
M  CHG  3   1   2   2   2   3   2
M  END
> <PUBCHEM_COMPOUND_CID>
121233614

> <PUBCHEM_COMPOUND_CANONICALIZED>
1

> <PUBCHEM_CACTVS_COMPLEXITY>
0

> <PUBCHEM_CACTVS_HBOND_ACCEPTOR>
0

> <PUBCHEM_CACTVS_HBOND_DONOR>
0

> <PUBCHEM_CACTVS_ROTATABLE_BOND>
0

> <PUBCHEM_CACTVS_SUBSKEYS>
AAADcQMAAAAAAAAQAAAAAAAAAAAAAAAAAAAAAAAAAAAAAAAAAAAAAAAAAAAAAAAAAAAAAAAAAAAAAAAAAAAAAAAAAAAAAAAAAAAAAAAAAAAAAAAAAAAAAAAAAAAAAAAAAAAAAAAAAAAAAAAAAAAAAAAAAA==

> <PUBCHEM_IUPAC_INCHI>
InChI=1S/2B.3Co/q;;3*+2

> <PUBCHEM_IUPAC_INCHIKEY>
QSOMCIJHXYGMAO-UHFFFAOYSA-N

> <PUBCHEM_EXACT_MASS>
198.81819

> <PUBCHEM_MOLECULAR_FORMULA>
B2Co3+6

> <PUBCHEM_MOLECULAR_WEIGHT>
198.43

> <PUBCHEM_SMILES>
[B].[B].[Co+2].[Co+2].[Co+2]

> <PUBCHEM_CONNECTIVITY_SMILES>
[B].[B].[Co+2].[Co+2].[Co+2]

> <PUBCHEM_CACTVS_TPSA>
0

> <PUBCHEM_MONOISOTOPIC_WEIGHT>
198.81819

> <PUBCHEM_TOTAL_CHARGE>
6

> <PUBCHEM_HEAVY_ATOM_COUNT>
5

> <PUBCHEM_ATOM_DEF_STEREO_COUNT>
0

> <PUBCHEM_ATOM_UDEF_STEREO_COUNT>
0

> <PUBCHEM_BOND_DEF_STEREO_COUNT>
0

> <PUBCHEM_BOND_UDEF_STEREO_COUNT>
0

> <PUBCHEM_ISOTOPIC_ATOM_COUNT>
0

> <PUBCHEM_COMPONENT_COUNT>
5

> <PUBCHEM_CACTVS_TAUTO_COUNT>
-1

> <PUBCHEM_COORDINATE_TYPE>
1
5
255

$$$$
