24288
  -OEChem-08152605432D

  3  2  0     0  0  0  0  0  0999 V2000
    2.8660   -0.2500    0.0000 Co  0  0  0  0  0  0  0  0  0  0  0  0
    3.7321    0.2500    0.0000 Cl  0  0  0  0  0  0  0  0  0  0  0  0
    2.0000    0.2500    0.0000 Cl  0  0  0  0  0  0  0  0  0  0  0  0
  1  2  1  0  0  0  0
  1  3  1  0  0  0  0
M  END
> <PUBCHEM_COMPOUND_CID>
24288

> <PUBCHEM_COMPOUND_CANONICALIZED>
1

> <PUBCHEM_CACTVS_COMPLEXITY>
2.8

> <PUBCHEM_CACTVS_HBOND_ACCEPTOR>
0

> <PUBCHEM_CACTVS_HBOND_DONOR>
0

> <PUBCHEM_CACTVS_ROTATABLE_BOND>
0

> <PUBCHEM_CACTVS_SUBSKEYS>
AAADcQAAAAAGAAAQAAAAAAAAAAAAAAAAAAAAAAAAAAAAAAAAAAAAAAAAAAAAAAAAAAAAAAAAAAAAAAAAAAAAAAAAAAAAAAAAAAAAAAAAAAAAAAAAAAAAAAAAAAAAAAAAAAAAAAAAAAAAAAAAAAAAAAAAAA==

> <PUBCHEM_IUPAC_OPENEYE_NAME>
dichlorocobalt

> <PUBCHEM_IUPAC_CAS_NAME>
dichlorocobalt

> <PUBCHEM_IUPAC_NAME_MARKUP>
dichlorocobalt

> <PUBCHEM_IUPAC_NAME>
dichlorocobalt

> <PUBCHEM_IUPAC_SYSTEMATIC_NAME>
bis(chloranyl)cobalt

> <PUBCHEM_IUPAC_TRADITIONAL_NAME>
dichlorocobalt

> <PUBCHEM_IUPAC_INCHI>
InChI=1S/2ClH.Co/h2*1H;/q;;+2/p-2

> <PUBCHEM_IUPAC_INCHIKEY>
GVPFVAHMJGGAJG-UHFFFAOYSA-L

> <PUBCHEM_EXACT_MASS>
128.870899

> <PUBCHEM_MOLECULAR_FORMULA>
Cl2Co

> <PUBCHEM_MOLECULAR_WEIGHT>
129.84

> <PUBCHEM_SMILES>
Cl[Co]Cl

> <PUBCHEM_CONNECTIVITY_SMILES>
Cl[Co]Cl

> <PUBCHEM_CACTVS_TPSA>
0

> <PUBCHEM_MONOISOTOPIC_WEIGHT>
128.870899

> <PUBCHEM_TOTAL_CHARGE>
0

> <PUBCHEM_HEAVY_ATOM_COUNT>
3

> <PUBCHEM_ATOM_DEF_STEREO_COUNT>
0

> <PUBCHEM_ATOM_UDEF_STEREO_COUNT>
0

> <PUBCHEM_BOND_DEF_STEREO_COUNT>
0

> <PUBCHEM_BOND_UDEF_STEREO_COUNT>
0

> <PUBCHEM_ISOTOPIC_ATOM_COUNT>
0

> <PUBCHEM_COMPONENT_COUNT>
1

> <PUBCHEM_CACTVS_TAUTO_COUNT>
-1

> <PUBCHEM_COORDINATE_TYPE>
1
5
255

$$$$
