956
  -OEChem-08152603312D

107110  0     1  0  0  0  0  0999 V2000
   21.4481    0.9857    0.0000 S   0  0  0  0  0  0  0  0  0  0  0  0
    5.3548    1.3873    0.0000 P   0  0  0  0  0  0  0  0  0  0  0  0
    8.4752    0.1475    0.0000 P   0  0  3  0  0  0  0  0  0  0  0  0
   10.1980    0.3256    0.0000 P   0  0  3  0  0  0  0  0  0  0  0  0
    5.9405   -1.6169    0.0000 O   0  0  0  0  0  0  0  0  0  0  0  0
    4.6844    0.6453    0.0000 O   0  0  0  0  0  0  0  0  0  0  0  0
    3.4026   -1.1125    0.0000 O   0  0  0  0  0  0  0  0  0  0  0  0
    7.6651   -0.4388    0.0000 O   0  0  0  0  0  0  0  0  0  0  0  0
    6.0252    2.1293    0.0000 O   0  0  0  0  0  0  0  0  0  0  0  0
    4.6128    2.0577    0.0000 O   0  0  0  0  0  0  0  0  0  0  0  0
    9.2852    0.7339    0.0000 O   0  0  0  0  0  0  0  0  0  0  0  0
    6.0968    0.7169    0.0000 O   0  0  0  0  0  0  0  0  0  0  0  0
   11.1109   -0.0827    0.0000 O   0  0  0  0  0  0  0  0  0  0  0  0
    9.0615   -0.6625    0.0000 O   0  0  0  0  0  0  0  0  0  0  0  0
    7.8888    0.9576    0.0000 O   0  0  0  0  0  0  0  0  0  0  0  0
   13.8494   -1.3077    0.0000 O   0  0  0  0  0  0  0  0  0  0  0  0
   10.6063    1.2385    0.0000 O   0  0  0  0  0  0  0  0  0  0  0  0
    9.7897   -0.5872    0.0000 O   0  0  0  0  0  0  0  0  0  0  0  0
   14.4538    1.2681    0.0000 O   0  0  0  0  0  0  0  0  0  0  0  0
   17.8996    1.6243    0.0000 O   0  0  0  0  0  0  0  0  0  0  0  0
   22.4638   -0.4173    0.0000 O   0  0  0  0  0  0  0  0  0  0  0  0
   21.3453    1.9804    0.0000 O   0  0  0  0  0  0  0  0  0  0  0  0
   20.1240    5.3728    0.0000 O   0  0  0  0  0  0  0  0  0  0  0  0
   21.8469    5.5509    0.0000 O   0  0  0  0  0  0  0  0  0  0  0  0
    4.6783   -2.8748    0.0000 N   0  0  0  0  0  0  0  0  0  0  0  0
    4.6783   -4.4843    0.0000 N   0  0  0  0  0  0  0  0  0  0  0  0
    2.8660   -2.6795    0.0000 N   0  0  0  0  0  0  0  0  0  0  0  0
    2.0000   -4.1795    0.0000 N   0  0  0  0  0  0  0  0  0  0  0  0
    2.8660   -5.6795    0.0000 N   0  0  0  0  0  0  0  0  0  0  0  0
   15.4695   -0.1349    0.0000 N   0  0  0  0  0  0  0  0  0  0  0  0
   18.9152    0.2212    0.0000 N   0  0  0  0  0  0  0  0  0  0  0  0
    4.9917   -0.3062    0.0000 C   0  0  3  0  0  0  0  0  0  0  0  0
    4.4026   -1.1143    0.0000 C   0  0  3  0  0  0  0  0  0  0  0  0
    5.9423   -0.6169    0.0000 C   0  0  3  0  0  0  0  0  0  0  0  0
    4.9889   -1.9243    0.0000 C   0  0  3  0  0  0  0  0  0  0  0  0
    6.7523   -0.0305    0.0000 C   0  0  0  0  0  0  0  0  0  0  0  0
    3.7321   -3.1795    0.0000 C   0  0  0  0  0  0  0  0  0  0  0  0
    5.2619   -3.6795    0.0000 C   0  0  0  0  0  0  0  0  0  0  0  0
    3.7321   -4.1795    0.0000 C   0  0  0  0  0  0  0  0  0  0  0  0
   12.8337    0.0954    0.0000 C   0  0  0  0  0  0  0  0  0  0  0  0
    2.8660   -4.6795    0.0000 C   0  0  0  0  0  0  0  0  0  0  0  0
   13.7466   -0.3130    0.0000 C   0  0  3  0  0  0  0  0  0  0  0  0
   11.9209    0.5037    0.0000 C   0  0  0  0  0  0  0  0  0  0  0  0
   13.2421    1.0082    0.0000 C   0  0  0  0  0  0  0  0  0  0  0  0
   12.4254   -0.8175    0.0000 C   0  0  0  0  0  0  0  0  0  0  0  0
    2.0000   -3.1795    0.0000 C   0  0  0  0  0  0  0  0  0  0  0  0
   14.5566    0.2734    0.0000 C   0  0  0  0  0  0  0  0  0  0  0  0
   16.2795    0.4515    0.0000 C   0  0  0  0  0  0  0  0  0  0  0  0
   17.1923    0.0432    0.0000 C   0  0  0  0  0  0  0  0  0  0  0  0
   18.0024    0.6296    0.0000 C   0  0  0  0  0  0  0  0  0  0  0  0
   19.7252    0.8076    0.0000 C   0  0  0  0  0  0  0  0  0  0  0  0
   20.6381    0.3993    0.0000 C   0  0  0  0  0  0  0  0  0  0  0  0
   22.3610    0.5774    0.0000 C   0  0  0  0  0  0  0  0  0  0  0  0
   23.1710    1.1638    0.0000 C   0  0  0  0  0  0  0  0  0  0  0  0
   23.0682    2.1585    0.0000 C   0  0  0  0  0  0  0  0  0  0  0  0
   22.1553    2.5668    0.0000 C   0  0  0  0  0  0  0  0  0  0  0  0
   22.0525    3.5615    0.0000 C   0  0  0  0  0  0  0  0  0  0  0  0
   24.0838    0.7554    0.0000 C   0  0  0  0  0  0  0  0  0  0  0  0
   23.8782    2.7449    0.0000 C   0  0  0  0  0  0  0  0  0  0  0  0
   21.1397    3.9698    0.0000 C   0  0  0  0  0  0  0  0  0  0  0  0
   24.8939    1.3418    0.0000 C   0  0  0  0  0  0  0  0  0  0  0  0
   24.7910    2.3365    0.0000 C   0  0  0  0  0  0  0  0  0  0  0  0
   21.0369    4.9645    0.0000 C   0  0  0  0  0  0  0  0  0  0  0  0
    5.4309    0.1314    0.0000 H   0  0  0  0  0  0  0  0  0  0  0  0
    4.1220   -0.5613    0.0000 H   0  0  0  0  0  0  0  0  0  0  0  0
    6.4942   -0.8993    0.0000 H   0  0  0  0  0  0  0  0  0  0  0  0
    5.4266   -2.3634    0.0000 H   0  0  0  0  0  0  0  0  0  0  0  0
    7.0999    0.4829    0.0000 H   0  0  0  0  0  0  0  0  0  0  0  0
    6.3070    0.4009    0.0000 H   0  0  0  0  0  0  0  0  0  0  0  0
    3.0935   -0.5750    0.0000 H   0  0  0  0  0  0  0  0  0  0  0  0
    5.8819   -3.6795    0.0000 H   0  0  0  0  0  0  0  0  0  0  0  0
   13.2444   -0.6765    0.0000 H   0  0  0  0  0  0  0  0  0  0  0  0
   12.2685    1.0171    0.0000 H   0  0  0  0  0  0  0  0  0  0  0  0
   11.4757    0.9351    0.0000 H   0  0  0  0  0  0  0  0  0  0  0  0
   13.8080    0.7550    0.0000 H   0  0  0  0  0  0  0  0  0  0  0  0
   13.4952    1.5742    0.0000 H   0  0  0  0  0  0  0  0  0  0  0  0
   12.6761    1.2614    0.0000 H   0  0  0  0  0  0  0  0  0  0  0  0
   11.8595   -0.5643    0.0000 H   0  0  0  0  0  0  0  0  0  0  0  0
   12.1723   -1.3834    0.0000 H   0  0  0  0  0  0  0  0  0  0  0  0
   12.9914   -1.0706    0.0000 H   0  0  0  0  0  0  0  0  0  0  0  0
    5.8346    2.7193    0.0000 H   0  0  0  0  0  0  0  0  0  0  0  0
    4.0228    1.8672    0.0000 H   0  0  0  0  0  0  0  0  0  0  0  0
    1.4631   -2.8695    0.0000 H   0  0  0  0  0  0  0  0  0  0  0  0
    8.8084   -1.2285    0.0000 H   0  0  0  0  0  0  0  0  0  0  0  0
    2.3291   -5.9895    0.0000 H   0  0  0  0  0  0  0  0  0  0  0  0
    3.4030   -5.9895    0.0000 H   0  0  0  0  0  0  0  0  0  0  0  0
   14.4154   -1.5608    0.0000 H   0  0  0  0  0  0  0  0  0  0  0  0
   15.5332   -0.7516    0.0000 H   0  0  0  0  0  0  0  0  0  0  0  0
   16.6271    0.9649    0.0000 H   0  0  0  0  0  0  0  0  0  0  0  0
   15.8342    0.8830    0.0000 H   0  0  0  0  0  0  0  0  0  0  0  0
   10.2428    1.7407    0.0000 H   0  0  0  0  0  0  0  0  0  0  0  0
   16.8447   -0.4702    0.0000 H   0  0  0  0  0  0  0  0  0  0  0  0
   17.6376   -0.3883    0.0000 H   0  0  0  0  0  0  0  0  0  0  0  0
   18.9789   -0.3955    0.0000 H   0  0  0  0  0  0  0  0  0  0  0  0
   20.0728    1.3210    0.0000 H   0  0  0  0  0  0  0  0  0  0  0  0
   19.2800    1.2391    0.0000 H   0  0  0  0  0  0  0  0  0  0  0  0
   20.2905   -0.1141    0.0000 H   0  0  0  0  0  0  0  0  0  0  0  0
   21.0833   -0.0321    0.0000 H   0  0  0  0  0  0  0  0  0  0  0  0
   22.6709    3.5172    0.0000 H   0  0  0  0  0  0  0  0  0  0  0  0
   22.2036    4.1628    0.0000 H   0  0  0  0  0  0  0  0  0  0  0  0
   24.1476    0.1387    0.0000 H   0  0  0  0  0  0  0  0  0  0  0  0
   23.8145    3.3616    0.0000 H   0  0  0  0  0  0  0  0  0  0  0  0
   20.5213    4.0141    0.0000 H   0  0  0  0  0  0  0  0  0  0  0  0
   20.9887    3.3685    0.0000 H   0  0  0  0  0  0  0  0  0  0  0  0
   25.4598    1.0887    0.0000 H   0  0  0  0  0  0  0  0  0  0  0  0
   25.2933    2.7001    0.0000 H   0  0  0  0  0  0  0  0  0  0  0  0
   20.0603    5.9895    0.0000 H   0  0  0  0  0  0  0  0  0  0  0  0
  1 52  1  0  0  0  0
  1 53  1  0  0  0  0
  2  6  1  0  0  0  0
  2  9  1  0  0  0  0
  2 10  1  0  0  0  0
  2 12  2  0  0  0  0
  3  8  1  0  0  0  0
  3 11  1  0  0  0  0
  3 14  1  0  0  0  0
  3 15  2  0  0  0  0
  4 11  1  0  0  0  0
  4 13  1  0  0  0  0
  4 17  1  0  0  0  0
  4 18  2  0  0  0  0
  5 34  1  0  0  0  0
  5 35  1  0  0  0  0
  6 32  1  0  0  0  0
  7 33  1  0  0  0  0
  7 70  1  0  0  0  0
  8 36  1  0  0  0  0
  9 81  1  0  0  0  0
 10 82  1  0  0  0  0
 13 43  1  0  0  0  0
 14 84  1  0  0  0  0
 16 42  1  0  0  0  0
 16 87  1  0  0  0  0
 17 91  1  0  0  0  0
 19 47  2  0  0  0  0
 20 50  2  0  0  0  0
 21 53  2  0  0  0  0
 22 56  2  0  0  0  0
 23 63  1  0  0  0  0
 23107  1  0  0  0  0
 24 63  2  0  0  0  0
 25 35  1  0  0  0  0
 25 37  1  0  0  0  0
 25 38  1  0  0  0  0
 26 38  2  0  0  0  0
 26 39  1  0  0  0  0
 27 37  2  0  0  0  0
 27 46  1  0  0  0  0
 28 41  1  0  0  0  0
 28 46  2  0  0  0  0
 29 41  1  0  0  0  0
 29 85  1  0  0  0  0
 29 86  1  0  0  0  0
 30 47  1  0  0  0  0
 30 48  1  0  0  0  0
 30 88  1  0  0  0  0
 31 50  1  0  0  0  0
 31 51  1  0  0  0  0
 31 94  1  0  0  0  0
 32 33  1  0  0  0  0
 32 34  1  0  0  0  0
 32 64  1  0  0  0  0
 33 35  1  0  0  0  0
 33 65  1  0  0  0  0
 34 36  1  0  0  0  0
 34 66  1  0  0  0  0
 35 67  1  0  0  0  0
 36 68  1  0  0  0  0
 36 69  1  0  0  0  0
 37 39  1  0  0  0  0
 38 71  1  0  0  0  0
 39 41  2  0  0  0  0
 40 42  1  0  0  0  0
 40 43  1  0  0  0  0
 40 44  1  0  0  0  0
 40 45  1  0  0  0  0
 42 47  1  0  0  0  0
 42 72  1  0  0  0  0
 43 73  1  0  0  0  0
 43 74  1  0  0  0  0
 44 75  1  0  0  0  0
 44 76  1  0  0  0  0
 44 77  1  0  0  0  0
 45 78  1  0  0  0  0
 45 79  1  0  0  0  0
 45 80  1  0  0  0  0
 46 83  1  0  0  0  0
 48 49  1  0  0  0  0
 48 89  1  0  0  0  0
 48 90  1  0  0  0  0
 49 50  1  0  0  0  0
 49 92  1  0  0  0  0
 49 93  1  0  0  0  0
 51 52  1  0  0  0  0
 51 95  1  0  0  0  0
 51 96  1  0  0  0  0
 52 97  1  0  0  0  0
 52 98  1  0  0  0  0
 53 54  1  0  0  0  0
 54 55  1  0  0  0  0
 54 58  2  0  0  0  0
 55 56  1  0  0  0  0
 55 59  2  0  0  0  0
 56 57  1  0  0  0  0
 57 60  1  0  0  0  0
 57 99  1  0  0  0  0
 57100  1  0  0  0  0
 58 61  1  0  0  0  0
 58101  1  0  0  0  0
 59 62  1  0  0  0  0
 59102  1  0  0  0  0
 60 63  1  0  0  0  0
 60103  1  0  0  0  0
 60104  1  0  0  0  0
 61 62  2  0  0  0  0
 61105  1  0  0  0  0
 62106  1  0  0  0  0
M  END
> <PUBCHEM_COMPOUND_CID>
956

> <PUBCHEM_COMPOUND_CANONICALIZED>
1

> <PUBCHEM_CACTVS_COMPLEXITY>
1780

> <PUBCHEM_CACTVS_HBOND_ACCEPTOR>
25

> <PUBCHEM_CACTVS_HBOND_DONOR>
10

> <PUBCHEM_CACTVS_ROTATABLE_BOND>
25

> <PUBCHEM_CACTVS_SUBSKEYS>
AAADcfB/vgNAAAAAAAAAAAAAAAAAAWJAAAA8QAAAAAAAAFgB/AAAHgQQCCAADhzl3wa3+L/MFxioQ6fzfIKCgC01ELAJ2KFoVNiLeDrg3VCeZQgvlgL7iaf7+PKPgAAAAAAQAAAAAAAAACAAAAAAAAAAAA==

> <PUBCHEM_IUPAC_OPENEYE_NAME>
4-[2-[2-[3-[[4-[[[5-(6-aminopurin-9-yl)-4-hydroxy-3-phosphonooxy-tetrahydrofuran-2-yl]methoxy-hydroxy-phosphoryl]oxy-hydroxy-phosphoryl]oxy-2-hydroxy-3,3-dimethyl-butanoyl]amino]propanoylamino]ethylsulfanylcarbonyl]phenyl]-4-oxo-butanoic acid

> <PUBCHEM_IUPAC_CAS_NAME>
4-[2-[[2-[[3-[[4-[[[5-(6-aminopurin-9-yl)-4-hydroxy-3-phosphonooxy-2-oxolanyl]methoxy-hydroxyphosphoryl]oxy-hydroxyphosphoryl]oxy-2-hydroxy-3,3-dimethyl-1-oxobutyl]amino]-1-oxopropyl]amino]ethylthio]-oxomethyl]phenyl]-4-oxobutanoic acid

> <PUBCHEM_IUPAC_NAME_MARKUP>
4-[2-[2-[3-[[4-[[[5-(6-aminopurin-9-yl)-4-hydroxy-3-phosphonooxyoxolan-2-yl]methoxy-hydroxyphosphoryl]oxy-hydroxyphosphoryl]oxy-2-hydroxy-3,3-dimethylbutanoyl]amino]propanoylamino]ethylsulfanylcarbonyl]phenyl]-4-oxobutanoic acid

> <PUBCHEM_IUPAC_NAME>
4-[2-[2-[3-[[4-[[[5-(6-aminopurin-9-yl)-4-hydroxy-3-phosphonooxyoxolan-2-yl]methoxy-hydroxyphosphoryl]oxy-hydroxyphosphoryl]oxy-2-hydroxy-3,3-dimethylbutanoyl]amino]propanoylamino]ethylsulfanylcarbonyl]phenyl]-4-oxobutanoic acid

> <PUBCHEM_IUPAC_SYSTEMATIC_NAME>
4-[2-[2-[3-[[4-[[[5-(6-aminopurin-9-yl)-4-oxidanyl-3-phosphonooxy-oxolan-2-yl]methoxy-oxidanyl-phosphoryl]oxy-oxidanyl-phosphoryl]oxy-3,3-dimethyl-2-oxidanyl-butanoyl]amino]propanoylamino]ethylsulfanylcarbonyl]phenyl]-4-oxidanylidene-butanoic acid

> <PUBCHEM_IUPAC_TRADITIONAL_NAME>
4-[2-[2-[3-[[4-[[(5-adenin-9-yl-4-hydroxy-3-phosphonooxy-tetrahydrofuran-2-yl)methoxy-hydroxy-phosphoryl]oxy-hydroxy-phosphoryl]oxy-2-hydroxy-3,3-dimethyl-butanoyl]amino]propanoylamino]ethylthio]carbonylphenyl]-4-keto-butyric acid

> <PUBCHEM_IUPAC_INCHI>
InChI=1S/C32H44N7O20P3S/c1-32(2,26(45)29(46)35-10-9-21(41)34-11-12-63-31(47)18-6-4-3-5-17(18)19(40)7-8-22(42)43)14-56-62(53,54)59-61(51,52)55-13-20-25(58-60(48,49)50)24(44)30(57-20)39-16-38-23-27(33)36-15-37-28(23)39/h3-6,15-16,20,24-26,30,44-45H,7-14H2,1-2H3,(H,34,41)(H,35,46)(H,42,43)(H,51,52)(H,53,54)(H2,33,36,37)(H2,48,49,50)

> <PUBCHEM_IUPAC_INCHIKEY>
AVOVYFCDODUXLY-UHFFFAOYSA-N

> <PUBCHEM_XLOGP3_AA>
-4.9

> <PUBCHEM_EXACT_MASS>
971.15746899

> <PUBCHEM_MOLECULAR_FORMULA>
C32H44N7O20P3S

> <PUBCHEM_MOLECULAR_WEIGHT>
971.7

> <PUBCHEM_SMILES>
CC(C)(COP(=O)(O)OP(=O)(O)OCC1C(C(C(O1)N2C=NC3=C(N=CN=C32)N)O)OP(=O)(O)O)C(C(=O)NCCC(=O)NCCSC(=O)C4=CC=CC=C4C(=O)CCC(=O)O)O

> <PUBCHEM_CONNECTIVITY_SMILES>
CC(C)(COP(=O)(O)OP(=O)(O)OCC1C(C(C(O1)N2C=NC3=C(N=CN=C32)N)O)OP(=O)(O)O)C(C(=O)NCCC(=O)NCCSC(=O)C4=CC=CC=C4C(=O)CCC(=O)O)O

> <PUBCHEM_CACTVS_TPSA>
443

> <PUBCHEM_MONOISOTOPIC_WEIGHT>
971.15746899

> <PUBCHEM_TOTAL_CHARGE>
0

> <PUBCHEM_HEAVY_ATOM_COUNT>
63

> <PUBCHEM_ATOM_DEF_STEREO_COUNT>
0

> <PUBCHEM_ATOM_UDEF_STEREO_COUNT>
5

> <PUBCHEM_BOND_DEF_STEREO_COUNT>
0

> <PUBCHEM_BOND_UDEF_STEREO_COUNT>
0

> <PUBCHEM_ISOTOPIC_ATOM_COUNT>
0

> <PUBCHEM_COMPONENT_COUNT>
1

> <PUBCHEM_CACTVS_TAUTO_COUNT>
-1

> <PUBCHEM_COORDINATE_TYPE>
1
5
255

> <PUBCHEM_BONDANNOTATIONS>
42  16  3
35  25  3
25  37  8
25  38  8
26  38  8
26  39  8
27  37  8
27  46  8
28  41  8
28  46  8
34  36  3
37  39  8
39  41  8
54  55  8
54  58  8
55  59  8
58  61  8
59  62  8
32  6  3
61  62  8
33  7  3

$$$$
