741
  -OEChem-08152603092D

 96 98  0     1  0  0  0  0  0999 V2000
   21.4481    2.6208    0.0000 S   0  0  0  0  0  0  0  0  0  0  0  0
    5.3548    3.0224    0.0000 P   0  0  0  0  0  0  0  0  0  0  0  0
    8.4752    1.7827    0.0000 P   0  0  3  0  0  0  0  0  0  0  0  0
   10.1980    1.9607    0.0000 P   0  0  3  0  0  0  0  0  0  0  0  0
    5.9405    0.0182    0.0000 O   0  0  0  0  0  0  0  0  0  0  0  0
    4.6844    2.2805    0.0000 O   0  0  0  0  0  0  0  0  0  0  0  0
    3.4026    0.5226    0.0000 O   0  0  0  0  0  0  0  0  0  0  0  0
    7.6651    1.1963    0.0000 O   0  0  0  0  0  0  0  0  0  0  0  0
    6.0252    3.7644    0.0000 O   0  0  0  0  0  0  0  0  0  0  0  0
    4.6128    3.6929    0.0000 O   0  0  0  0  0  0  0  0  0  0  0  0
    9.2852    2.3690    0.0000 O   0  0  0  0  0  0  0  0  0  0  0  0
   11.1109    1.5524    0.0000 O   0  0  0  0  0  0  0  0  0  0  0  0
    6.0968    2.3520    0.0000 O   0  0  0  0  0  0  0  0  0  0  0  0
    9.0615    0.9726    0.0000 O   0  0  0  0  0  0  0  0  0  0  0  0
   13.8494    0.3275    0.0000 O   0  0  0  0  0  0  0  0  0  0  0  0
    7.8888    2.5927    0.0000 O   0  0  0  0  0  0  0  0  0  0  0  0
   10.6063    2.8736    0.0000 O   0  0  0  0  0  0  0  0  0  0  0  0
    9.7897    1.0479    0.0000 O   0  0  0  0  0  0  0  0  0  0  0  0
   14.4538    2.9032    0.0000 O   0  0  0  0  0  0  0  0  0  0  0  0
   17.8996    3.2594    0.0000 O   0  0  0  0  0  0  0  0  0  0  0  0
   22.4638    1.2178    0.0000 O   0  0  0  0  0  0  0  0  0  0  0  0
   26.6167    3.1550    0.0000 O   0  0  0  0  0  0  0  0  0  0  0  0
   25.9095    1.5739    0.0000 O   0  0  0  0  0  0  0  0  0  0  0  0
    4.6783   -1.2397    0.0000 N   0  0  0  0  0  0  0  0  0  0  0  0
    4.6783   -2.8492    0.0000 N   0  0  0  0  0  0  0  0  0  0  0  0
    2.8660   -1.0444    0.0000 N   0  0  0  0  0  0  0  0  0  0  0  0
    2.0000   -2.5444    0.0000 N   0  0  0  0  0  0  0  0  0  0  0  0
    2.8660   -4.0444    0.0000 N   0  0  0  0  0  0  0  0  0  0  0  0
   15.4695    1.5002    0.0000 N   0  0  0  0  0  0  0  0  0  0  0  0
   18.9152    1.8564    0.0000 N   0  0  0  0  0  0  0  0  0  0  0  0
    4.9917    1.3289    0.0000 C   0  0  3  0  0  0  0  0  0  0  0  0
    4.4026    0.5209    0.0000 C   0  0  3  0  0  0  0  0  0  0  0  0
    5.9423    1.0182    0.0000 C   0  0  3  0  0  0  0  0  0  0  0  0
    4.9889   -0.2892    0.0000 C   0  0  3  0  0  0  0  0  0  0  0  0
    6.7523    1.6046    0.0000 C   0  0  0  0  0  0  0  0  0  0  0  0
    3.7321   -1.5444    0.0000 C   0  0  0  0  0  0  0  0  0  0  0  0
    5.2619   -2.0444    0.0000 C   0  0  0  0  0  0  0  0  0  0  0  0
    3.7321   -2.5444    0.0000 C   0  0  0  0  0  0  0  0  0  0  0  0
   12.8337    1.7305    0.0000 C   0  0  0  0  0  0  0  0  0  0  0  0
   13.7466    1.3222    0.0000 C   0  0  3  0  0  0  0  0  0  0  0  0
   11.9209    2.1388    0.0000 C   0  0  0  0  0  0  0  0  0  0  0  0
    2.8660   -3.0444    0.0000 C   0  0  0  0  0  0  0  0  0  0  0  0
   13.2421    2.6433    0.0000 C   0  0  0  0  0  0  0  0  0  0  0  0
   12.4254    0.8176    0.0000 C   0  0  0  0  0  0  0  0  0  0  0  0
    2.0000   -1.5444    0.0000 C   0  0  0  0  0  0  0  0  0  0  0  0
   14.5566    1.9085    0.0000 C   0  0  0  0  0  0  0  0  0  0  0  0
   16.2795    2.0866    0.0000 C   0  0  0  0  0  0  0  0  0  0  0  0
   17.1923    1.6783    0.0000 C   0  0  0  0  0  0  0  0  0  0  0  0
   18.0024    2.2647    0.0000 C   0  0  0  0  0  0  0  0  0  0  0  0
   19.7252    2.4428    0.0000 C   0  0  0  0  0  0  0  0  0  0  0  0
   20.6381    2.0344    0.0000 C   0  0  0  0  0  0  0  0  0  0  0  0
   22.3610    2.2125    0.0000 C   0  0  0  0  0  0  0  0  0  0  0  0
   23.1710    2.7989    0.0000 C   0  0  0  0  0  0  0  0  0  0  0  0
   24.0838    2.3906    0.0000 C   0  0  0  0  0  0  0  0  0  0  0  0
   24.8939    2.9770    0.0000 C   0  0  0  0  0  0  0  0  0  0  0  0
   25.8067    2.5686    0.0000 C   0  0  0  0  0  0  0  0  0  0  0  0
    5.4309    1.7665    0.0000 H   0  0  0  0  0  0  0  0  0  0  0  0
    4.1220    1.0738    0.0000 H   0  0  0  0  0  0  0  0  0  0  0  0
    6.4942    0.7358    0.0000 H   0  0  0  0  0  0  0  0  0  0  0  0
    5.4266   -0.7283    0.0000 H   0  0  0  0  0  0  0  0  0  0  0  0
    7.0999    2.1180    0.0000 H   0  0  0  0  0  0  0  0  0  0  0  0
    6.3070    2.0361    0.0000 H   0  0  0  0  0  0  0  0  0  0  0  0
    3.0935    1.0601    0.0000 H   0  0  0  0  0  0  0  0  0  0  0  0
    5.8819   -2.0444    0.0000 H   0  0  0  0  0  0  0  0  0  0  0  0
   13.2444    0.9586    0.0000 H   0  0  0  0  0  0  0  0  0  0  0  0
   12.2685    2.6522    0.0000 H   0  0  0  0  0  0  0  0  0  0  0  0
   11.4757    2.5703    0.0000 H   0  0  0  0  0  0  0  0  0  0  0  0
   13.8080    2.3902    0.0000 H   0  0  0  0  0  0  0  0  0  0  0  0
   13.4952    3.2093    0.0000 H   0  0  0  0  0  0  0  0  0  0  0  0
   12.6761    2.8965    0.0000 H   0  0  0  0  0  0  0  0  0  0  0  0
   11.8595    1.0708    0.0000 H   0  0  0  0  0  0  0  0  0  0  0  0
   12.1723    0.2517    0.0000 H   0  0  0  0  0  0  0  0  0  0  0  0
   12.9914    0.5645    0.0000 H   0  0  0  0  0  0  0  0  0  0  0  0
    5.8346    4.3544    0.0000 H   0  0  0  0  0  0  0  0  0  0  0  0
    4.0228    3.5023    0.0000 H   0  0  0  0  0  0  0  0  0  0  0  0
    1.4631   -1.2344    0.0000 H   0  0  0  0  0  0  0  0  0  0  0  0
    8.8084    0.4067    0.0000 H   0  0  0  0  0  0  0  0  0  0  0  0
    2.3291   -4.3544    0.0000 H   0  0  0  0  0  0  0  0  0  0  0  0
    3.4030   -4.3544    0.0000 H   0  0  0  0  0  0  0  0  0  0  0  0
   14.4154    0.0743    0.0000 H   0  0  0  0  0  0  0  0  0  0  0  0
   15.5332    0.8835    0.0000 H   0  0  0  0  0  0  0  0  0  0  0  0
   16.6271    2.6000    0.0000 H   0  0  0  0  0  0  0  0  0  0  0  0
   15.8342    2.5181    0.0000 H   0  0  0  0  0  0  0  0  0  0  0  0
   10.2428    3.3758    0.0000 H   0  0  0  0  0  0  0  0  0  0  0  0
   16.8447    1.1649    0.0000 H   0  0  0  0  0  0  0  0  0  0  0  0
   17.6376    1.2468    0.0000 H   0  0  0  0  0  0  0  0  0  0  0  0
   18.9789    1.2397    0.0000 H   0  0  0  0  0  0  0  0  0  0  0  0
   20.0728    2.9562    0.0000 H   0  0  0  0  0  0  0  0  0  0  0  0
   19.2800    2.8742    0.0000 H   0  0  0  0  0  0  0  0  0  0  0  0
   20.2905    1.5210    0.0000 H   0  0  0  0  0  0  0  0  0  0  0  0
   21.0833    1.6030    0.0000 H   0  0  0  0  0  0  0  0  0  0  0  0
   23.1072    3.4156    0.0000 H   0  0  0  0  0  0  0  0  0  0  0  0
   24.1476    1.7739    0.0000 H   0  0  0  0  0  0  0  0  0  0  0  0
   25.2414    3.4904    0.0000 H   0  0  0  0  0  0  0  0  0  0  0  0
   24.4486    3.4084    0.0000 H   0  0  0  0  0  0  0  0  0  0  0  0
   27.1827    2.9019    0.0000 H   0  0  0  0  0  0  0  0  0  0  0  0
  1 51  1  0  0  0  0
  1 52  1  0  0  0  0
  2  6  1  0  0  0  0
  2  9  1  0  0  0  0
  2 10  1  0  0  0  0
  2 13  2  0  0  0  0
  3  8  1  0  0  0  0
  3 11  1  0  0  0  0
  3 14  1  0  0  0  0
  3 16  2  0  0  0  0
  4 11  1  0  0  0  0
  4 12  1  0  0  0  0
  4 17  1  0  0  0  0
  4 18  2  0  0  0  0
  5 33  1  0  0  0  0
  5 34  1  0  0  0  0
  6 31  1  0  0  0  0
  7 32  1  0  0  0  0
  7 63  1  0  0  0  0
  8 35  1  0  0  0  0
  9 74  1  0  0  0  0
 10 75  1  0  0  0  0
 12 41  1  0  0  0  0
 14 77  1  0  0  0  0
 15 40  1  0  0  0  0
 15 80  1  0  0  0  0
 17 84  1  0  0  0  0
 19 46  2  0  0  0  0
 20 49  2  0  0  0  0
 21 52  2  0  0  0  0
 22 56  1  0  0  0  0
 22 96  1  0  0  0  0
 23 56  2  0  0  0  0
 24 34  1  0  0  0  0
 24 36  1  0  0  0  0
 24 37  1  0  0  0  0
 25 37  2  0  0  0  0
 25 38  1  0  0  0  0
 26 36  2  0  0  0  0
 26 45  1  0  0  0  0
 27 42  1  0  0  0  0
 27 45  2  0  0  0  0
 28 42  1  0  0  0  0
 28 78  1  0  0  0  0
 28 79  1  0  0  0  0
 29 46  1  0  0  0  0
 29 47  1  0  0  0  0
 29 81  1  0  0  0  0
 30 49  1  0  0  0  0
 30 50  1  0  0  0  0
 30 87  1  0  0  0  0
 31 32  1  0  0  0  0
 31 33  1  0  0  0  0
 31 57  1  0  0  0  0
 32 34  1  0  0  0  0
 32 58  1  0  0  0  0
 33 35  1  0  0  0  0
 33 59  1  0  0  0  0
 34 60  1  0  0  0  0
 35 61  1  0  0  0  0
 35 62  1  0  0  0  0
 36 38  1  0  0  0  0
 37 64  1  0  0  0  0
 38 42  2  0  0  0  0
 39 40  1  0  0  0  0
 39 41  1  0  0  0  0
 39 43  1  0  0  0  0
 39 44  1  0  0  0  0
 40 46  1  0  0  0  0
 40 65  1  0  0  0  0
 41 66  1  0  0  0  0
 41 67  1  0  0  0  0
 43 68  1  0  0  0  0
 43 69  1  0  0  0  0
 43 70  1  0  0  0  0
 44 71  1  0  0  0  0
 44 72  1  0  0  0  0
 44 73  1  0  0  0  0
 45 76  1  0  0  0  0
 47 48  1  0  0  0  0
 47 82  1  0  0  0  0
 47 83  1  0  0  0  0
 48 49  1  0  0  0  0
 48 85  1  0  0  0  0
 48 86  1  0  0  0  0
 50 51  1  0  0  0  0
 50 88  1  0  0  0  0
 50 89  1  0  0  0  0
 51 90  1  0  0  0  0
 51 91  1  0  0  0  0
 52 53  1  0  0  0  0
 53 54  2  3  0  0  0
 53 92  1  0  0  0  0
 54 55  1  0  0  0  0
 54 93  1  0  0  0  0
 55 56  1  0  0  0  0
 55 94  1  0  0  0  0
 55 95  1  0  0  0  0
M  END
> <PUBCHEM_COMPOUND_CID>
741

> <PUBCHEM_COMPOUND_CANONICALIZED>
1

> <PUBCHEM_CACTVS_COMPLEXITY>
1570

> <PUBCHEM_CACTVS_HBOND_ACCEPTOR>
24

> <PUBCHEM_CACTVS_HBOND_DONOR>
10

> <PUBCHEM_CACTVS_ROTATABLE_BOND>
23

> <PUBCHEM_CACTVS_SUBSKEYS>
AAADcfB7vgNAAAAAAAAAAAAAAAAAAWJAAAAsAAAAAAAAAFgB+AAAHgQQCCAADhzl1waH+L/MFxioQSfzfIKAgC0xELAJWKFoVFiDWBpAyUAeRAgPVgL7AaLyMAIJAAAAAAAAAAAAAAAAAAAAAAAAAAAAAA==

> <PUBCHEM_IUPAC_OPENEYE_NAME>
5-[2-[3-[[4-[[[5-(6-aminopurin-9-yl)-4-hydroxy-3-phosphonooxy-tetrahydrofuran-2-yl]methoxy-hydroxy-phosphoryl]oxy-hydroxy-phosphoryl]oxy-2-hydroxy-3,3-dimethyl-butanoyl]amino]propanoylamino]ethylsulfanyl]-5-oxo-pent-3-enoic acid

> <PUBCHEM_IUPAC_CAS_NAME>
5-[2-[[3-[[4-[[[5-(6-aminopurin-9-yl)-4-hydroxy-3-phosphonooxy-2-oxolanyl]methoxy-hydroxyphosphoryl]oxy-hydroxyphosphoryl]oxy-2-hydroxy-3,3-dimethyl-1-oxobutyl]amino]-1-oxopropyl]amino]ethylthio]-5-oxo-3-pentenoic acid

> <PUBCHEM_IUPAC_NAME_MARKUP>
5-[2-[3-[[4-[[[5-(6-aminopurin-9-yl)-4-hydroxy-3-phosphonooxyoxolan-2-yl]methoxy-hydroxyphosphoryl]oxy-hydroxyphosphoryl]oxy-2-hydroxy-3,3-dimethylbutanoyl]amino]propanoylamino]ethylsulfanyl]-5-oxopent-3-enoic acid

> <PUBCHEM_IUPAC_NAME>
5-[2-[3-[[4-[[[5-(6-aminopurin-9-yl)-4-hydroxy-3-phosphonooxyoxolan-2-yl]methoxy-hydroxyphosphoryl]oxy-hydroxyphosphoryl]oxy-2-hydroxy-3,3-dimethylbutanoyl]amino]propanoylamino]ethylsulfanyl]-5-oxopent-3-enoic acid

> <PUBCHEM_IUPAC_SYSTEMATIC_NAME>
5-[2-[3-[[4-[[[5-(6-aminopurin-9-yl)-4-oxidanyl-3-phosphonooxy-oxolan-2-yl]methoxy-oxidanyl-phosphoryl]oxy-oxidanyl-phosphoryl]oxy-3,3-dimethyl-2-oxidanyl-butanoyl]amino]propanoylamino]ethylsulfanyl]-5-oxidanylidene-pent-3-enoic acid

> <PUBCHEM_IUPAC_TRADITIONAL_NAME>
5-[2-[3-[[4-[[(5-adenin-9-yl-4-hydroxy-3-phosphonooxy-tetrahydrofuran-2-yl)methoxy-hydroxy-phosphoryl]oxy-hydroxy-phosphoryl]oxy-2-hydroxy-3,3-dimethyl-butanoyl]amino]propanoylamino]ethylthio]-5-keto-pent-3-enoic acid

> <PUBCHEM_IUPAC_INCHI>
InChI=1S/C26H40N7O19P3S/c1-26(2,21(39)24(40)29-7-6-15(34)28-8-9-56-17(37)5-3-4-16(35)36)11-49-55(46,47)52-54(44,45)48-10-14-20(51-53(41,42)43)19(38)25(50-14)33-13-32-18-22(27)30-12-31-23(18)33/h3,5,12-14,19-21,25,38-39H,4,6-11H2,1-2H3,(H,28,34)(H,29,40)(H,35,36)(H,44,45)(H,46,47)(H2,27,30,31)(H2,41,42,43)

> <PUBCHEM_IUPAC_INCHIKEY>
URTLOTISFJPPOU-UHFFFAOYSA-N

> <PUBCHEM_XLOGP3_AA>
-5.7

> <PUBCHEM_EXACT_MASS>
879.13125424

> <PUBCHEM_MOLECULAR_FORMULA>
C26H40N7O19P3S

> <PUBCHEM_MOLECULAR_WEIGHT>
879.6

> <PUBCHEM_SMILES>
CC(C)(COP(=O)(O)OP(=O)(O)OCC1C(C(C(O1)N2C=NC3=C(N=CN=C32)N)O)OP(=O)(O)O)C(C(=O)NCCC(=O)NCCSC(=O)C=CCC(=O)O)O

> <PUBCHEM_CONNECTIVITY_SMILES>
CC(C)(COP(=O)(O)OP(=O)(O)OCC1C(C(C(O1)N2C=NC3=C(N=CN=C32)N)O)OP(=O)(O)O)C(C(=O)NCCC(=O)NCCSC(=O)C=CCC(=O)O)O

> <PUBCHEM_CACTVS_TPSA>
426

> <PUBCHEM_MONOISOTOPIC_WEIGHT>
879.13125424

> <PUBCHEM_TOTAL_CHARGE>
0

> <PUBCHEM_HEAVY_ATOM_COUNT>
56

> <PUBCHEM_ATOM_DEF_STEREO_COUNT>
0

> <PUBCHEM_ATOM_UDEF_STEREO_COUNT>
5

> <PUBCHEM_BOND_DEF_STEREO_COUNT>
0

> <PUBCHEM_BOND_UDEF_STEREO_COUNT>
1

> <PUBCHEM_ISOTOPIC_ATOM_COUNT>
0

> <PUBCHEM_COMPONENT_COUNT>
1

> <PUBCHEM_CACTVS_TAUTO_COUNT>
-1

> <PUBCHEM_COORDINATE_TYPE>
1
5
255

> <PUBCHEM_BONDANNOTATIONS>
40  15  3
34  24  3
24  36  8
24  37  8
25  37  8
25  38  8
26  36  8
26  45  8
27  42  8
27  45  8
33  35  3
36  38  8
38  42  8
53  54  1
31  6  3
32  7  3

$$$$
