386
  -OEChem-08152602432D

143145  0     1  0  0  0  0  0999 V2000
   21.4481    2.6208    0.0000 S   0  0  0  0  0  0  0  0  0  0  0  0
    5.3548    3.0224    0.0000 P   0  0  0  0  0  0  0  0  0  0  0  0
    8.4752    1.7827    0.0000 P   0  0  3  0  0  0  0  0  0  0  0  0
   10.1980    1.9607    0.0000 P   0  0  3  0  0  0  0  0  0  0  0  0
    5.9405    0.0182    0.0000 O   0  0  0  0  0  0  0  0  0  0  0  0
    4.6844    2.2805    0.0000 O   0  0  0  0  0  0  0  0  0  0  0  0
    3.4026    0.5226    0.0000 O   0  0  0  0  0  0  0  0  0  0  0  0
    7.6651    1.1963    0.0000 O   0  0  0  0  0  0  0  0  0  0  0  0
    6.0252    3.7644    0.0000 O   0  0  0  0  0  0  0  0  0  0  0  0
    4.6128    3.6929    0.0000 O   0  0  0  0  0  0  0  0  0  0  0  0
    6.0968    2.3520    0.0000 O   0  0  0  0  0  0  0  0  0  0  0  0
    9.2852    2.3690    0.0000 O   0  0  0  0  0  0  0  0  0  0  0  0
    9.0615    0.9726    0.0000 O   0  0  0  0  0  0  0  0  0  0  0  0
   11.1109    1.5524    0.0000 O   0  0  0  0  0  0  0  0  0  0  0  0
    7.8888    2.5927    0.0000 O   0  0  0  0  0  0  0  0  0  0  0  0
   13.8494    0.3275    0.0000 O   0  0  0  0  0  0  0  0  0  0  0  0
   22.4638    1.2178    0.0000 O   0  0  0  0  0  0  0  0  0  0  0  0
   10.6063    2.8736    0.0000 O   0  0  0  0  0  0  0  0  0  0  0  0
    9.7897    1.0479    0.0000 O   0  0  0  0  0  0  0  0  0  0  0  0
   14.4538    2.9032    0.0000 O   0  0  0  0  0  0  0  0  0  0  0  0
   17.8996    3.2594    0.0000 O   0  0  0  0  0  0  0  0  0  0  0  0
    4.6783   -1.2397    0.0000 N   0  0  0  0  0  0  0  0  0  0  0  0
    4.6783   -2.8492    0.0000 N   0  0  0  0  0  0  0  0  0  0  0  0
    2.8660   -1.0444    0.0000 N   0  0  0  0  0  0  0  0  0  0  0  0
    2.0000   -2.5444    0.0000 N   0  0  0  0  0  0  0  0  0  0  0  0
    2.8660   -4.0444    0.0000 N   0  0  0  0  0  0  0  0  0  0  0  0
   15.4695    1.5002    0.0000 N   0  0  0  0  0  0  0  0  0  0  0  0
   18.9152    1.8564    0.0000 N   0  0  0  0  0  0  0  0  0  0  0  0
    4.9917    1.3289    0.0000 C   0  0  3  0  0  0  0  0  0  0  0  0
    4.4026    0.5209    0.0000 C   0  0  3  0  0  0  0  0  0  0  0  0
    5.9422    1.0182    0.0000 C   0  0  3  0  0  0  0  0  0  0  0  0
    4.9889   -0.2892    0.0000 C   0  0  3  0  0  0  0  0  0  0  0  0
    6.7523    1.6046    0.0000 C   0  0  0  0  0  0  0  0  0  0  0  0
   27.5296    2.7467    0.0000 C   0  0  3  0  0  0  0  0  0  0  0  0
   30.9753    3.1028    0.0000 C   0  0  3  0  0  0  0  0  0  0  0  0
   28.3396    3.3331    0.0000 C   0  0  0  0  0  0  0  0  0  0  0  0
   30.0625    3.5112    0.0000 C   0  0  0  0  0  0  0  0  0  0  0  0
   29.2524    2.9248    0.0000 C   0  0  0  0  0  0  0  0  0  0  0  0
   26.6167    3.1550    0.0000 C   0  0  0  0  0  0  0  0  0  0  0  0
   31.7854    3.6892    0.0000 C   0  0  0  0  0  0  0  0  0  0  0  0
   25.8067    2.5686    0.0000 C   0  0  0  0  0  0  0  0  0  0  0  0
    3.7320   -1.5444    0.0000 C   0  0  0  0  0  0  0  0  0  0  0  0
   32.6982    3.2809    0.0000 C   0  0  0  0  0  0  0  0  0  0  0  0
   24.8939    2.9770    0.0000 C   0  0  0  0  0  0  0  0  0  0  0  0
   27.6324    1.7520    0.0000 C   0  0  0  0  0  0  0  0  0  0  0  0
    5.2619   -2.0444    0.0000 C   0  0  0  0  0  0  0  0  0  0  0  0
   31.0781    2.1081    0.0000 C   0  0  0  0  0  0  0  0  0  0  0  0
   24.0838    2.3906    0.0000 C   0  0  3  0  0  0  0  0  0  0  0  0
   33.5082    3.8673    0.0000 C   0  0  0  0  0  0  0  0  0  0  0  0
    3.7320   -2.5444    0.0000 C   0  0  0  0  0  0  0  0  0  0  0  0
   34.4211    3.4590    0.0000 C   0  0  0  0  0  0  0  0  0  0  0  0
   23.1710    2.7989    0.0000 C   0  0  0  0  0  0  0  0  0  0  0  0
   24.1866    1.3959    0.0000 C   0  0  0  0  0  0  0  0  0  0  0  0
    2.8660   -3.0444    0.0000 C   0  0  0  0  0  0  0  0  0  0  0  0
   35.2311    4.0454    0.0000 C   0  0  0  0  0  0  0  0  0  0  0  0
   34.5239    2.4643    0.0000 C   0  0  0  0  0  0  0  0  0  0  0  0
   12.8337    1.7305    0.0000 C   0  0  0  0  0  0  0  0  0  0  0  0
    2.0000   -1.5444    0.0000 C   0  0  0  0  0  0  0  0  0  0  0  0
   22.3610    2.2125    0.0000 C   0  0  0  0  0  0  0  0  0  0  0  0
   11.9209    2.1388    0.0000 C   0  0  0  0  0  0  0  0  0  0  0  0
   13.7466    1.3222    0.0000 C   0  0  3  0  0  0  0  0  0  0  0  0
   13.2421    2.6433    0.0000 C   0  0  0  0  0  0  0  0  0  0  0  0
   12.4254    0.8176    0.0000 C   0  0  0  0  0  0  0  0  0  0  0  0
   14.5566    1.9085    0.0000 C   0  0  0  0  0  0  0  0  0  0  0  0
   20.6381    2.0344    0.0000 C   0  0  0  0  0  0  0  0  0  0  0  0
   16.2795    2.0866    0.0000 C   0  0  0  0  0  0  0  0  0  0  0  0
   19.7252    2.4428    0.0000 C   0  0  0  0  0  0  0  0  0  0  0  0
   17.1923    1.6783    0.0000 C   0  0  0  0  0  0  0  0  0  0  0  0
   18.0024    2.2647    0.0000 C   0  0  0  0  0  0  0  0  0  0  0  0
    5.4309    1.7665    0.0000 H   0  0  0  0  0  0  0  0  0  0  0  0
    4.1220    1.0738    0.0000 H   0  0  0  0  0  0  0  0  0  0  0  0
    6.4942    0.7358    0.0000 H   0  0  0  0  0  0  0  0  0  0  0  0
    5.4266   -0.7283    0.0000 H   0  0  0  0  0  0  0  0  0  0  0  0
    7.0999    2.1180    0.0000 H   0  0  0  0  0  0  0  0  0  0  0  0
    6.3070    2.0360    0.0000 H   0  0  0  0  0  0  0  0  0  0  0  0
   27.0274    2.3831    0.0000 H   0  0  0  0  0  0  0  0  0  0  0  0
   30.4731    2.7393    0.0000 H   0  0  0  0  0  0  0  0  0  0  0  0
   28.6872    3.8465    0.0000 H   0  0  0  0  0  0  0  0  0  0  0  0
   27.8944    3.7645    0.0000 H   0  0  0  0  0  0  0  0  0  0  0  0
   30.4101    4.0245    0.0000 H   0  0  0  0  0  0  0  0  0  0  0  0
   29.6172    3.9426    0.0000 H   0  0  0  0  0  0  0  0  0  0  0  0
   28.9049    2.4114    0.0000 H   0  0  0  0  0  0  0  0  0  0  0  0
   29.6977    2.4933    0.0000 H   0  0  0  0  0  0  0  0  0  0  0  0
   26.9643    3.6684    0.0000 H   0  0  0  0  0  0  0  0  0  0  0  0
   26.1715    3.5865    0.0000 H   0  0  0  0  0  0  0  0  0  0  0  0
   32.1329    4.2026    0.0000 H   0  0  0  0  0  0  0  0  0  0  0  0
   31.3401    4.1207    0.0000 H   0  0  0  0  0  0  0  0  0  0  0  0
   25.4591    2.0552    0.0000 H   0  0  0  0  0  0  0  0  0  0  0  0
   26.2519    2.1372    0.0000 H   0  0  0  0  0  0  0  0  0  0  0  0
    3.0935    1.0601    0.0000 H   0  0  0  0  0  0  0  0  0  0  0  0
   32.3506    2.7675    0.0000 H   0  0  0  0  0  0  0  0  0  0  0  0
   33.1434    2.8494    0.0000 H   0  0  0  0  0  0  0  0  0  0  0  0
   25.2414    3.4904    0.0000 H   0  0  0  0  0  0  0  0  0  0  0  0
   24.4486    3.4084    0.0000 H   0  0  0  0  0  0  0  0  0  0  0  0
   27.0157    1.6883    0.0000 H   0  0  0  0  0  0  0  0  0  0  0  0
   27.6961    1.1353    0.0000 H   0  0  0  0  0  0  0  0  0  0  0  0
   28.2491    1.8157    0.0000 H   0  0  0  0  0  0  0  0  0  0  0  0
    5.8819   -2.0444    0.0000 H   0  0  0  0  0  0  0  0  0  0  0  0
   30.4614    2.0444    0.0000 H   0  0  0  0  0  0  0  0  0  0  0  0
   31.1419    1.4914    0.0000 H   0  0  0  0  0  0  0  0  0  0  0  0
   31.6948    2.1719    0.0000 H   0  0  0  0  0  0  0  0  0  0  0  0
   24.6498    2.1374    0.0000 H   0  0  0  0  0  0  0  0  0  0  0  0
   33.8558    4.3807    0.0000 H   0  0  0  0  0  0  0  0  0  0  0  0
   33.0630    4.2988    0.0000 H   0  0  0  0  0  0  0  0  0  0  0  0
   33.9188    3.0954    0.0000 H   0  0  0  0  0  0  0  0  0  0  0  0
   23.5186    3.3123    0.0000 H   0  0  0  0  0  0  0  0  0  0  0  0
   22.7257    3.2303    0.0000 H   0  0  0  0  0  0  0  0  0  0  0  0
   23.5699    1.3321    0.0000 H   0  0  0  0  0  0  0  0  0  0  0  0
   24.2504    0.7791    0.0000 H   0  0  0  0  0  0  0  0  0  0  0  0
   24.8033    1.4596    0.0000 H   0  0  0  0  0  0  0  0  0  0  0  0
   35.5947    3.5431    0.0000 H   0  0  0  0  0  0  0  0  0  0  0  0
   35.7333    4.4089    0.0000 H   0  0  0  0  0  0  0  0  0  0  0  0
   34.8675    4.5476    0.0000 H   0  0  0  0  0  0  0  0  0  0  0  0
   33.9072    2.4005    0.0000 H   0  0  0  0  0  0  0  0  0  0  0  0
   34.5876    1.8476    0.0000 H   0  0  0  0  0  0  0  0  0  0  0  0
   35.1406    2.5280    0.0000 H   0  0  0  0  0  0  0  0  0  0  0  0
    5.8346    4.3544    0.0000 H   0  0  0  0  0  0  0  0  0  0  0  0
    4.0228    3.5023    0.0000 H   0  0  0  0  0  0  0  0  0  0  0  0
    1.4631   -1.2344    0.0000 H   0  0  0  0  0  0  0  0  0  0  0  0
   12.2685    2.6522    0.0000 H   0  0  0  0  0  0  0  0  0  0  0  0
   11.4757    2.5702    0.0000 H   0  0  0  0  0  0  0  0  0  0  0  0
   13.2444    0.9586    0.0000 H   0  0  0  0  0  0  0  0  0  0  0  0
   13.8080    2.3902    0.0000 H   0  0  0  0  0  0  0  0  0  0  0  0
   13.4952    3.2093    0.0000 H   0  0  0  0  0  0  0  0  0  0  0  0
   12.6761    2.8965    0.0000 H   0  0  0  0  0  0  0  0  0  0  0  0
   11.8595    1.0708    0.0000 H   0  0  0  0  0  0  0  0  0  0  0  0
   12.1723    0.2517    0.0000 H   0  0  0  0  0  0  0  0  0  0  0  0
   12.9914    0.5645    0.0000 H   0  0  0  0  0  0  0  0  0  0  0  0
    2.3291   -4.3544    0.0000 H   0  0  0  0  0  0  0  0  0  0  0  0
    3.4030   -4.3544    0.0000 H   0  0  0  0  0  0  0  0  0  0  0  0
    8.8084    0.4067    0.0000 H   0  0  0  0  0  0  0  0  0  0  0  0
   14.4154    0.0743    0.0000 H   0  0  0  0  0  0  0  0  0  0  0  0
   20.2905    1.5210    0.0000 H   0  0  0  0  0  0  0  0  0  0  0  0
   21.0833    1.6030    0.0000 H   0  0  0  0  0  0  0  0  0  0  0  0
   15.5332    0.8835    0.0000 H   0  0  0  0  0  0  0  0  0  0  0  0
   10.2428    3.3758    0.0000 H   0  0  0  0  0  0  0  0  0  0  0  0
   16.6271    2.6000    0.0000 H   0  0  0  0  0  0  0  0  0  0  0  0
   15.8342    2.5181    0.0000 H   0  0  0  0  0  0  0  0  0  0  0  0
   20.0728    2.9562    0.0000 H   0  0  0  0  0  0  0  0  0  0  0  0
   19.2800    2.8742    0.0000 H   0  0  0  0  0  0  0  0  0  0  0  0
   16.8447    1.1649    0.0000 H   0  0  0  0  0  0  0  0  0  0  0  0
   17.6376    1.2468    0.0000 H   0  0  0  0  0  0  0  0  0  0  0  0
   18.9789    1.2396    0.0000 H   0  0  0  0  0  0  0  0  0  0  0  0
  1 59  1  0  0  0  0
  1 65  1  0  0  0  0
  2  6  1  0  0  0  0
  2  9  1  0  0  0  0
  2 10  1  0  0  0  0
  2 11  2  0  0  0  0
  3  8  1  0  0  0  0
  3 12  1  0  0  0  0
  3 13  1  0  0  0  0
  3 15  2  0  0  0  0
  4 12  1  0  0  0  0
  4 14  1  0  0  0  0
  4 18  1  0  0  0  0
  4 19  2  0  0  0  0
  5 31  1  0  0  0  0
  5 32  1  0  0  0  0
  6 29  1  0  0  0  0
  7 30  1  0  0  0  0
  7 90  1  0  0  0  0
  8 33  1  0  0  0  0
  9117  1  0  0  0  0
 10118  1  0  0  0  0
 13131  1  0  0  0  0
 14 60  1  0  0  0  0
 16 61  1  0  0  0  0
 16132  1  0  0  0  0
 17 59  2  0  0  0  0
 18136  1  0  0  0  0
 20 64  2  0  0  0  0
 21 69  2  0  0  0  0
 22 32  1  0  0  0  0
 22 42  1  0  0  0  0
 22 46  1  0  0  0  0
 23 46  2  0  0  0  0
 23 50  1  0  0  0  0
 24 42  2  0  0  0  0
 24 58  1  0  0  0  0
 25 54  1  0  0  0  0
 25 58  2  0  0  0  0
 26 54  1  0  0  0  0
 26129  1  0  0  0  0
 26130  1  0  0  0  0
 27 64  1  0  0  0  0
 27 66  1  0  0  0  0
 27135  1  0  0  0  0
 28 67  1  0  0  0  0
 28 69  1  0  0  0  0
 28143  1  0  0  0  0
 29 30  1  0  0  0  0
 29 31  1  0  0  0  0
 29 70  1  0  0  0  0
 30 32  1  0  0  0  0
 30 71  1  0  0  0  0
 31 33  1  0  0  0  0
 31 72  1  0  0  0  0
 32 73  1  0  0  0  0
 33 74  1  0  0  0  0
 33 75  1  0  0  0  0
 34 36  1  0  0  0  0
 34 39  1  0  0  0  0
 34 45  1  0  0  0  0
 34 76  1  0  0  0  0
 35 37  1  0  0  0  0
 35 40  1  0  0  0  0
 35 47  1  0  0  0  0
 35 77  1  0  0  0  0
 36 38  1  0  0  0  0
 36 78  1  0  0  0  0
 36 79  1  0  0  0  0
 37 38  1  0  0  0  0
 37 80  1  0  0  0  0
 37 81  1  0  0  0  0
 38 82  1  0  0  0  0
 38 83  1  0  0  0  0
 39 41  1  0  0  0  0
 39 84  1  0  0  0  0
 39 85  1  0  0  0  0
 40 43  1  0  0  0  0
 40 86  1  0  0  0  0
 40 87  1  0  0  0  0
 41 44  1  0  0  0  0
 41 88  1  0  0  0  0
 41 89  1  0  0  0  0
 42 50  1  0  0  0  0
 43 49  1  0  0  0  0
 43 91  1  0  0  0  0
 43 92  1  0  0  0  0
 44 48  1  0  0  0  0
 44 93  1  0  0  0  0
 44 94  1  0  0  0  0
 45 95  1  0  0  0  0
 45 96  1  0  0  0  0
 45 97  1  0  0  0  0
 46 98  1  0  0  0  0
 47 99  1  0  0  0  0
 47100  1  0  0  0  0
 47101  1  0  0  0  0
 48 52  1  0  0  0  0
 48 53  1  0  0  0  0
 48102  1  0  0  0  0
 49 51  1  0  0  0  0
 49103  1  0  0  0  0
 49104  1  0  0  0  0
 50 54  2  0  0  0  0
 51 55  1  0  0  0  0
 51 56  1  0  0  0  0
 51105  1  0  0  0  0
 52 59  1  0  0  0  0
 52106  1  0  0  0  0
 52107  1  0  0  0  0
 53108  1  0  0  0  0
 53109  1  0  0  0  0
 53110  1  0  0  0  0
 55111  1  0  0  0  0
 55112  1  0  0  0  0
 55113  1  0  0  0  0
 56114  1  0  0  0  0
 56115  1  0  0  0  0
 56116  1  0  0  0  0
 57 60  1  0  0  0  0
 57 61  1  0  0  0  0
 57 62  1  0  0  0  0
 57 63  1  0  0  0  0
 58119  1  0  0  0  0
 60120  1  0  0  0  0
 60121  1  0  0  0  0
 61 64  1  0  0  0  0
 61122  1  0  0  0  0
 62123  1  0  0  0  0
 62124  1  0  0  0  0
 62125  1  0  0  0  0
 63126  1  0  0  0  0
 63127  1  0  0  0  0
 63128  1  0  0  0  0
 65 67  1  0  0  0  0
 65133  1  0  0  0  0
 65134  1  0  0  0  0
 66 68  1  0  0  0  0
 66137  1  0  0  0  0
 66138  1  0  0  0  0
 67139  1  0  0  0  0
 67140  1  0  0  0  0
 68 69  1  0  0  0  0
 68141  1  0  0  0  0
 68142  1  0  0  0  0
M  END
> <PUBCHEM_COMPOUND_CID>
386

> <PUBCHEM_COMPOUND_CANONICALIZED>
1

> <PUBCHEM_CACTVS_COMPLEXITY>
1760

> <PUBCHEM_CACTVS_HBOND_ACCEPTOR>
22

> <PUBCHEM_CACTVS_HBOND_DONOR>
9

> <PUBCHEM_CACTVS_ROTATABLE_BOND>
34

> <PUBCHEM_CACTVS_SUBSKEYS>
AAADcfB/vgNAAAAAAAAAAAAAAAAAAWJAAAAsAAAAAAAAAFgB+AAAHgQQCCAADxzl1waH8L/MFxioQQdxdIKAgC0RELABUKFoVBCDWBpgyEAeRAgPFgLzACH6uMKPAAAAAAAAAAAAAAAAAAAAAAAAAAAAAA==

> <PUBCHEM_IUPAC_OPENEYE_NAME>
S-[2-[3-[[4-[[[5-(6-aminopurin-9-yl)-4-hydroxy-3-phosphonooxy-tetrahydrofuran-2-yl]methoxy-hydroxy-phosphoryl]oxy-hydroxy-phosphoryl]oxy-2-hydroxy-3,3-dimethyl-butanoyl]amino]propanoylamino]ethyl] 3,7,11,15-tetramethylhexadecanethioate

> <PUBCHEM_IUPAC_CAS_NAME>
3,7,11,15-tetramethylhexadecanethioic acid S-[2-[[3-[[4-[[[5-(6-aminopurin-9-yl)-4-hydroxy-3-phosphonooxy-2-oxolanyl]methoxy-hydroxyphosphoryl]oxy-hydroxyphosphoryl]oxy-2-hydroxy-3,3-dimethyl-1-oxobutyl]amino]-1-oxopropyl]amino]ethyl] ester

> <PUBCHEM_IUPAC_NAME_MARKUP>
<I>S</I>-[2-[3-[[4-[[[5-(6-aminopurin-9-yl)-4-hydroxy-3-phosphonooxyoxolan-2-yl]methoxy-hydroxyphosphoryl]oxy-hydroxyphosphoryl]oxy-2-hydroxy-3,3-dimethylbutanoyl]amino]propanoylamino]ethyl] 3,7,11,15-tetramethylhexadecanethioate

> <PUBCHEM_IUPAC_NAME>
S-[2-[3-[[4-[[[5-(6-aminopurin-9-yl)-4-hydroxy-3-phosphonooxyoxolan-2-yl]methoxy-hydroxyphosphoryl]oxy-hydroxyphosphoryl]oxy-2-hydroxy-3,3-dimethylbutanoyl]amino]propanoylamino]ethyl] 3,7,11,15-tetramethylhexadecanethioate

> <PUBCHEM_IUPAC_SYSTEMATIC_NAME>
S-[2-[3-[[4-[[[5-(6-aminopurin-9-yl)-4-oxidanyl-3-phosphonooxy-oxolan-2-yl]methoxy-oxidanyl-phosphoryl]oxy-oxidanyl-phosphoryl]oxy-3,3-dimethyl-2-oxidanyl-butanoyl]amino]propanoylamino]ethyl] 3,7,11,15-tetramethylhexadecanethioate

> <PUBCHEM_IUPAC_TRADITIONAL_NAME>
3,7,11,15-tetramethylhexadecanethioic acid S-[2-[3-[[4-[[(5-adenin-9-yl-4-hydroxy-3-phosphonooxy-tetrahydrofuran-2-yl)methoxy-hydroxy-phosphoryl]oxy-hydroxy-phosphoryl]oxy-2-hydroxy-3,3-dimethyl-butanoyl]amino]propanoylamino]ethyl] ester

> <PUBCHEM_IUPAC_INCHI>
InChI=1S/C41H74N7O17P3S/c1-26(2)11-8-12-27(3)13-9-14-28(4)15-10-16-29(5)21-32(50)69-20-19-43-31(49)17-18-44-39(53)36(52)41(6,7)23-62-68(59,60)65-67(57,58)61-22-30-35(64-66(54,55)56)34(51)40(63-30)48-25-47-33-37(42)45-24-46-38(33)48/h24-30,34-36,40,51-52H,8-23H2,1-7H3,(H,43,49)(H,44,53)(H,57,58)(H,59,60)(H2,42,45,46)(H2,54,55,56)

> <PUBCHEM_IUPAC_INCHIKEY>
NRJQGHHZMSOUEN-UHFFFAOYSA-N

> <PUBCHEM_XLOGP3_AA>
2.9

> <PUBCHEM_EXACT_MASS>
1061.40747608

> <PUBCHEM_MOLECULAR_FORMULA>
C41H74N7O17P3S

> <PUBCHEM_MOLECULAR_WEIGHT>
1062.1

> <PUBCHEM_SMILES>
CC(C)CCCC(C)CCCC(C)CCCC(C)CC(=O)SCCNC(=O)CCNC(=O)C(C(C)(C)COP(=O)(O)OP(=O)(O)OCC1C(C(C(O1)N2C=NC3=C(N=CN=C32)N)O)OP(=O)(O)O)O

> <PUBCHEM_CONNECTIVITY_SMILES>
CC(C)CCCC(C)CCCC(C)CCCC(C)CC(=O)SCCNC(=O)CCNC(=O)C(C(C)(C)COP(=O)(O)OP(=O)(O)OCC1C(C(C(O1)N2C=NC3=C(N=CN=C32)N)O)OP(=O)(O)O)O

> <PUBCHEM_CACTVS_TPSA>
389

> <PUBCHEM_MONOISOTOPIC_WEIGHT>
1061.40747608

> <PUBCHEM_TOTAL_CHARGE>
0

> <PUBCHEM_HEAVY_ATOM_COUNT>
69

> <PUBCHEM_ATOM_DEF_STEREO_COUNT>
0

> <PUBCHEM_ATOM_UDEF_STEREO_COUNT>
8

> <PUBCHEM_BOND_DEF_STEREO_COUNT>
0

> <PUBCHEM_BOND_UDEF_STEREO_COUNT>
0

> <PUBCHEM_ISOTOPIC_ATOM_COUNT>
0

> <PUBCHEM_COMPONENT_COUNT>
1

> <PUBCHEM_CACTVS_TAUTO_COUNT>
-1

> <PUBCHEM_COORDINATE_TYPE>
1
5
255

> <PUBCHEM_BONDANNOTATIONS>
61  16  3
32  22  3
22  42  8
22  46  8
23  46  8
23  50  8
24  42  8
24  58  8
25  54  8
25  58  8
31  33  3
34  45  3
35  47  3
42  50  8
48  53  3
50  54  8
29  6  3
30  7  3

$$$$
