24611
  -OEChem-08152607082D

  3  2  0     0  0  0  0  0  0999 V2000
    3.7321    0.2500    0.0000 Br  0  0  0  0  0  0  0  0  0  0  0  0
    2.0000    0.2500    0.0000 Br  0  0  0  0  0  0  0  0  0  0  0  0
    2.8660   -0.2500    0.0000 Cu  0  0  0  0  0  0  0  0  0  0  0  0
  1  3  1  0  0  0  0
  2  3  1  0  0  0  0
M  END
> <PUBCHEM_COMPOUND_CID>
24611

> <PUBCHEM_COMPOUND_CANONICALIZED>
1

> <PUBCHEM_CACTVS_COMPLEXITY>
2.8

> <PUBCHEM_CACTVS_HBOND_ACCEPTOR>
0

> <PUBCHEM_CACTVS_HBOND_DONOR>
0

> <PUBCHEM_CACTVS_ROTATABLE_BOND>
0

> <PUBCHEM_CACTVS_SUBSKEYS>
AAADcQAAAAAAGAAEAAAAAAAAAAAAAAAAAAAAAAAAAAAAAAAAAAAAAAAAAAAAAAAAAAAAAAAAAAAAAAAAAAAAAAAAAAAAAAAAAAAAAAAAAAAAAAAAAAAAAAAAAAAAAAAAAAAAAAAAAAAAAAAAAAAAAAAAAA==

> <PUBCHEM_IUPAC_OPENEYE_NAME>
dibromocopper

> <PUBCHEM_IUPAC_CAS_NAME>
dibromocopper

> <PUBCHEM_IUPAC_NAME_MARKUP>
dibromocopper

> <PUBCHEM_IUPAC_NAME>
dibromocopper

> <PUBCHEM_IUPAC_SYSTEMATIC_NAME>
bis(bromanyl)copper

> <PUBCHEM_IUPAC_TRADITIONAL_NAME>
dibromocopper

> <PUBCHEM_IUPAC_INCHI>
InChI=1S/2BrH.Cu/h2*1H;/q;;+2/p-2

> <PUBCHEM_IUPAC_INCHIKEY>
QTMDXZNDVAMKGV-UHFFFAOYSA-L

> <PUBCHEM_EXACT_MASS>
222.76422

> <PUBCHEM_MOLECULAR_FORMULA>
Br2Cu

> <PUBCHEM_MOLECULAR_WEIGHT>
223.35

> <PUBCHEM_SMILES>
[Cu](Br)Br

> <PUBCHEM_CONNECTIVITY_SMILES>
[Cu](Br)Br

> <PUBCHEM_CACTVS_TPSA>
0

> <PUBCHEM_MONOISOTOPIC_WEIGHT>
220.76627

> <PUBCHEM_TOTAL_CHARGE>
0

> <PUBCHEM_HEAVY_ATOM_COUNT>
3

> <PUBCHEM_ATOM_DEF_STEREO_COUNT>
0

> <PUBCHEM_ATOM_UDEF_STEREO_COUNT>
0

> <PUBCHEM_BOND_DEF_STEREO_COUNT>
0

> <PUBCHEM_BOND_UDEF_STEREO_COUNT>
0

> <PUBCHEM_ISOTOPIC_ATOM_COUNT>
0

> <PUBCHEM_COMPONENT_COUNT>
1

> <PUBCHEM_CACTVS_TAUTO_COUNT>
-1

> <PUBCHEM_COORDINATE_TYPE>
1
5
255

$$$$
