3084153
  -OEChem-08152605412D

  2  1  0     0  0  0  0  0  0999 V2000
    2.0000    0.0000    0.0000 Cu  0  0  0  0  0  0  0  0  0  0  0  0
    3.0000    0.0000    0.0000 F   0  0  0  0  0  0  0  0  0  0  0  0
  1  2  1  0  0  0  0
M  END
> <PUBCHEM_COMPOUND_CID>
3084153

> <PUBCHEM_COMPOUND_CANONICALIZED>
1

> <PUBCHEM_CACTVS_COMPLEXITY>
2

> <PUBCHEM_CACTVS_HBOND_ACCEPTOR>
1

> <PUBCHEM_CACTVS_HBOND_DONOR>
0

> <PUBCHEM_CACTVS_ROTATABLE_BOND>
0

> <PUBCHEM_CACTVS_SUBSKEYS>
AAADcQAAAQAAAAAEAAAAAAAAAAAAAAAAAAAAAAAAAAAAAAAAAAAAAAAAAAAAAAAAAAAAAAAAAAAAAAAAAAAAAAAAAAAAAAAAAAAAAAAAAAAAAAAAAAAAAAAAAAAAAAAAAAAAAAAAAAAAAAAAAAAAAAAAAA==

> <PUBCHEM_IUPAC_OPENEYE_NAME>
fluorocopper

> <PUBCHEM_IUPAC_CAS_NAME>
fluorocopper

> <PUBCHEM_IUPAC_NAME_MARKUP>
fluorocopper

> <PUBCHEM_IUPAC_NAME>
fluorocopper

> <PUBCHEM_IUPAC_SYSTEMATIC_NAME>
fluoranylcopper

> <PUBCHEM_IUPAC_TRADITIONAL_NAME>
fluorocopper

> <PUBCHEM_IUPAC_INCHI>
InChI=1S/Cu.FH/h;1H/q+1;/p-1

> <PUBCHEM_IUPAC_INCHIKEY>
BMRUOURRLCCWHB-UHFFFAOYSA-M

> <PUBCHEM_EXACT_MASS>
81.928000

> <PUBCHEM_MOLECULAR_FORMULA>
CuF

> <PUBCHEM_MOLECULAR_WEIGHT>
82.54

> <PUBCHEM_SMILES>
F[Cu]

> <PUBCHEM_CONNECTIVITY_SMILES>
F[Cu]

> <PUBCHEM_CACTVS_TPSA>
0

> <PUBCHEM_MONOISOTOPIC_WEIGHT>
81.928000

> <PUBCHEM_TOTAL_CHARGE>
0

> <PUBCHEM_HEAVY_ATOM_COUNT>
2

> <PUBCHEM_ATOM_DEF_STEREO_COUNT>
0

> <PUBCHEM_ATOM_UDEF_STEREO_COUNT>
0

> <PUBCHEM_BOND_DEF_STEREO_COUNT>
0

> <PUBCHEM_BOND_UDEF_STEREO_COUNT>
0

> <PUBCHEM_ISOTOPIC_ATOM_COUNT>
0

> <PUBCHEM_COMPONENT_COUNT>
1

> <PUBCHEM_CACTVS_TAUTO_COUNT>
-1

> <PUBCHEM_COORDINATE_TYPE>
1
5
255

$$$$
