56841037
  -OEChem-08152606522D

  6  2  0     0  0  0  0  0  0999 V2000
    3.8606    0.6535    0.0000 Cu  0  3  0  0  0  0  0  0  0  0  0  0
    2.0000    0.2581    0.0000 Cu  0  0  0  0  0  0  0  0  0  0  0  0
    2.5878   -0.7600    0.0000 Cu  0  0  0  0  0  0  0  0  0  0  0  0
    2.9945    0.1535    0.0000 N   0  5  0  0  0  0  0  0  0  0  0  0
    2.8656    0.7600    0.0000 H   0  0  0  0  0  0  0  0  0  0  0  0
    3.4553   -0.2613    0.0000 H   0  0  0  0  0  0  0  0  0  0  0  0
  4  5  1  0  0  0  0
  4  6  1  0  0  0  0
M  CHG  2   1   1   4  -1
M  END
> <PUBCHEM_COMPOUND_CID>
56841037

> <PUBCHEM_COMPOUND_CANONICALIZED>
1

> <PUBCHEM_CACTVS_COMPLEXITY>
3.2

> <PUBCHEM_CACTVS_HBOND_ACCEPTOR>
1

> <PUBCHEM_CACTVS_HBOND_DONOR>
1

> <PUBCHEM_CACTVS_ROTATABLE_BOND>
0

> <PUBCHEM_CACTVS_SUBSKEYS>
AAADcQACAAAAAAAEAAAAAAAAAAAAAAAAAAAAAAAAAAAAAAAAAAAAAAAQAAAAAAAAAAAAAAAAAAAAAAAAAAAAAAAAAAAAAAAAAAAAAAAAAAAAAAAAAAAAAAAAAAAAAAAAAAAAAAAAAAAAAAAAAAAAAAAAAA==

> <PUBCHEM_IUPAC_OPENEYE_NAME>
cuprous;azanide;copper

> <PUBCHEM_IUPAC_CAS_NAME>
azanide;copper;copper(1+)

> <PUBCHEM_IUPAC_NAME_MARKUP>
azanide;copper;copper(1+)

> <PUBCHEM_IUPAC_NAME>
azanide;copper;copper(1+)

> <PUBCHEM_IUPAC_SYSTEMATIC_NAME>
azanide;copper;copper(1+)

> <PUBCHEM_IUPAC_TRADITIONAL_NAME>
cuprous;azanide;copper

> <PUBCHEM_IUPAC_INCHI>
InChI=1S/3Cu.H2N/h;;;1H2/q;;+1;-1

> <PUBCHEM_IUPAC_INCHIKEY>
DOIHHHHNLGDDRE-UHFFFAOYSA-N

> <PUBCHEM_EXACT_MASS>
206.80571

> <PUBCHEM_MOLECULAR_FORMULA>
Cu3H2N

> <PUBCHEM_MOLECULAR_WEIGHT>
206.66

> <PUBCHEM_SMILES>
[NH2-].[Cu].[Cu].[Cu+]

> <PUBCHEM_CONNECTIVITY_SMILES>
[NH2-].[Cu].[Cu].[Cu+]

> <PUBCHEM_CACTVS_TPSA>
1

> <PUBCHEM_MONOISOTOPIC_WEIGHT>
204.80752

> <PUBCHEM_TOTAL_CHARGE>
0

> <PUBCHEM_HEAVY_ATOM_COUNT>
4

> <PUBCHEM_ATOM_DEF_STEREO_COUNT>
0

> <PUBCHEM_ATOM_UDEF_STEREO_COUNT>
0

> <PUBCHEM_BOND_DEF_STEREO_COUNT>
0

> <PUBCHEM_BOND_UDEF_STEREO_COUNT>
0

> <PUBCHEM_ISOTOPIC_ATOM_COUNT>
0

> <PUBCHEM_COMPONENT_COUNT>
4

> <PUBCHEM_CACTVS_TAUTO_COUNT>
-1

> <PUBCHEM_NONSTANDARDBOND>
1  4  6
2  4  6
3  4  6

> <PUBCHEM_COORDINATE_TYPE>
1
5
255

$$$$
