24745345
  -OEChem-08152605042D

  7  4  0     0  0  0  0  0  0999 V2000
    4.5981    0.0000    0.0000 Cu  0  2  0  0  0  0  0  0  0  0  0  0
    6.3301    0.0000    0.0000 N   0  3  0  0  0  0  0  0  0  0  0  0
    2.8660   -0.0000    0.0000 N   0  3  0  0  0  0  0  0  0  0  0  0
    7.1962   -0.5000    0.0000 N   0  5  0  0  0  0  0  0  0  0  0  0
    5.4641    0.5000    0.0000 N   0  5  0  0  0  0  0  0  0  0  0  0
    2.0000   -0.5000    0.0000 N   0  5  0  0  0  0  0  0  0  0  0  0
    3.7321    0.5000    0.0000 N   0  5  0  0  0  0  0  0  0  0  0  0
  2  4  2  0  0  0  0
  2  5  2  0  0  0  0
  3  6  2  0  0  0  0
  3  7  2  0  0  0  0
M  CHG  7   1   2   2   1   3   1   4  -1   5  -1   6  -1   7  -1
M  END
> <PUBCHEM_COMPOUND_CID>
24745345

> <PUBCHEM_COMPOUND_CANONICALIZED>
1

> <PUBCHEM_CACTVS_COMPLEXITY>
15.5

> <PUBCHEM_CACTVS_HBOND_ACCEPTOR>
4

> <PUBCHEM_CACTVS_HBOND_DONOR>
0

> <PUBCHEM_CACTVS_ROTATABLE_BOND>
0

> <PUBCHEM_CACTVS_SUBSKEYS>
AAADcQADgAAAAAAEAAAAAAAAAAAAAAAAAAAAAAAAAAAAAAAAAAAAAAAIAAAAAAAAAAAAAAAAAAACAAAAAAAAAAAAAAAAAAAAAAAAAAAAAAAAAAAAAAAAAAAAAAAAAAAAAAAAAAAAAAAAAAAAAAAAAAAAAA==

> <PUBCHEM_IUPAC_OPENEYE_NAME>
copper diazide

> <PUBCHEM_IUPAC_CAS_NAME>
copper diazide

> <PUBCHEM_IUPAC_NAME_MARKUP>
copper diazide

> <PUBCHEM_IUPAC_NAME>
copper diazide

> <PUBCHEM_IUPAC_SYSTEMATIC_NAME>
copper diazide

> <PUBCHEM_IUPAC_TRADITIONAL_NAME>
cupric diazide

> <PUBCHEM_IUPAC_INCHI>
InChI=1S/Cu.2N3/c;2*1-3-2/q+2;2*-1

> <PUBCHEM_IUPAC_INCHIKEY>
SXHYOTRZGGGMEV-UHFFFAOYSA-N

> <PUBCHEM_EXACT_MASS>
146.948041

> <PUBCHEM_MOLECULAR_FORMULA>
CuN6

> <PUBCHEM_MOLECULAR_WEIGHT>
147.59

> <PUBCHEM_SMILES>
[N-]=[N+]=[N-].[N-]=[N+]=[N-].[Cu+2]

> <PUBCHEM_CONNECTIVITY_SMILES>
[N-]=[N+]=[N-].[N-]=[N+]=[N-].[Cu+2]

> <PUBCHEM_CACTVS_TPSA>
6

> <PUBCHEM_MONOISOTOPIC_WEIGHT>
146.948041

> <PUBCHEM_TOTAL_CHARGE>
0

> <PUBCHEM_HEAVY_ATOM_COUNT>
7

> <PUBCHEM_ATOM_DEF_STEREO_COUNT>
0

> <PUBCHEM_ATOM_UDEF_STEREO_COUNT>
0

> <PUBCHEM_BOND_DEF_STEREO_COUNT>
0

> <PUBCHEM_BOND_UDEF_STEREO_COUNT>
0

> <PUBCHEM_ISOTOPIC_ATOM_COUNT>
0

> <PUBCHEM_COMPONENT_COUNT>
3

> <PUBCHEM_CACTVS_TAUTO_COUNT>
-1

> <PUBCHEM_COORDINATE_TYPE>
1
5
255

$$$$
