3260416
  -OEChem-08152604402D

 10  8  0     0  0  0  0  0  0999 V2000
    2.0000   -0.1230    0.0000 Cu  0  0  0  0  0  0  0  0  0  0  0  0
    3.7320   -0.1230    0.0000 S   0  0  0  0  0  0  0  0  0  0  0  0
    5.4641    0.8770    0.0000 F   0  0  0  0  0  0  0  0  0  0  0  0
    5.0981   -0.4890    0.0000 F   0  0  0  0  0  0  0  0  0  0  0  0
    4.0981    1.2430    0.0000 F   0  0  0  0  0  0  0  0  0  0  0  0
    2.8660   -0.6230    0.0000 O   0  0  0  0  0  0  0  0  0  0  0  0
    3.2320    0.7430    0.0000 O   0  0  0  0  0  0  0  0  0  0  0  0
    4.2320   -0.9890    0.0000 O   0  0  0  0  0  0  0  0  0  0  0  0
    4.5981    0.3770    0.0000 C   0  0  0  0  0  0  0  0  0  0  0  0
    2.8660   -1.2430    0.0000 H   0  0  0  0  0  0  0  0  0  0  0  0
  2  6  1  0  0  0  0
  2  7  2  0  0  0  0
  2  8  2  0  0  0  0
  2  9  1  0  0  0  0
  3  9  1  0  0  0  0
  4  9  1  0  0  0  0
  5  9  1  0  0  0  0
  6 10  1  0  0  0  0
M  END
> <PUBCHEM_COMPOUND_CID>
3260416

> <PUBCHEM_COMPOUND_CANONICALIZED>
1

> <PUBCHEM_CACTVS_COMPLEXITY>
162

> <PUBCHEM_CACTVS_HBOND_ACCEPTOR>
6

> <PUBCHEM_CACTVS_HBOND_DONOR>
1

> <PUBCHEM_CACTVS_ROTATABLE_BOND>
0

> <PUBCHEM_CACTVS_SUBSKEYS>
AAADcQAAMYBAAAAEAAAAAAAAAAAAAAAAAAAAAAAAAAAAAAAAAAAAAQQACAAAAAAAABAAAAAAAIIAAAAAAHAAAAAAAAAAAAAAAAAAAAAAAAAAAAAAAAAAAAAAAAAAAAAAAAAAAAAAAAAAAAAAAAAAAAAAAA==

> <PUBCHEM_IUPAC_OPENEYE_NAME>
copper;trifluoromethanesulfonic acid

> <PUBCHEM_IUPAC_CAS_NAME>
copper;trifluoromethanesulfonic acid

> <PUBCHEM_IUPAC_NAME_MARKUP>
copper;trifluoromethanesulfonic acid

> <PUBCHEM_IUPAC_NAME>
copper;trifluoromethanesulfonic acid

> <PUBCHEM_IUPAC_SYSTEMATIC_NAME>
copper;tris(fluoranyl)methanesulfonic acid

> <PUBCHEM_IUPAC_TRADITIONAL_NAME>
copper;triflic acid

> <PUBCHEM_IUPAC_INCHI>
InChI=1S/CHF3O3S.Cu/c2-1(3,4)8(5,6)7;/h(H,5,6,7);

> <PUBCHEM_IUPAC_INCHIKEY>
GZWXEFRPSWBAGC-UHFFFAOYSA-N

> <PUBCHEM_EXACT_MASS>
212.889447

> <PUBCHEM_MOLECULAR_FORMULA>
CHCuF3O3S

> <PUBCHEM_MOLECULAR_WEIGHT>
213.63

> <PUBCHEM_SMILES>
C(F)(F)(F)S(=O)(=O)O.[Cu]

> <PUBCHEM_CONNECTIVITY_SMILES>
C(F)(F)(F)S(=O)(=O)O.[Cu]

> <PUBCHEM_CACTVS_TPSA>
62.8

> <PUBCHEM_MONOISOTOPIC_WEIGHT>
212.889447

> <PUBCHEM_TOTAL_CHARGE>
0

> <PUBCHEM_HEAVY_ATOM_COUNT>
9

> <PUBCHEM_ATOM_DEF_STEREO_COUNT>
0

> <PUBCHEM_ATOM_UDEF_STEREO_COUNT>
0

> <PUBCHEM_BOND_DEF_STEREO_COUNT>
0

> <PUBCHEM_BOND_UDEF_STEREO_COUNT>
0

> <PUBCHEM_ISOTOPIC_ATOM_COUNT>
0

> <PUBCHEM_COMPONENT_COUNT>
2

> <PUBCHEM_CACTVS_TAUTO_COUNT>
-1

> <PUBCHEM_NONSTANDARDBOND>
1  6  6

> <PUBCHEM_COORDINATE_TYPE>
1
5
255

$$$$
