13669119
  -OEChem-08152606292D

 29 26  0     0  0  0  0  0  0999 V2000
    4.5981    0.3840    0.0000 Cu  0  2  0  0  0  0  0  0  0  0  0  0
    2.8660   -1.6160    0.0000 O   0  0  0  0  0  0  0  0  0  0  0  0
    2.2321    0.7500    0.0000 O   0  0  0  0  0  0  0  0  0  0  0  0
    6.3301   -1.6160    0.0000 O   0  0  0  0  0  0  0  0  0  0  0  0
    6.9641    0.7500    0.0000 O   0  0  0  0  0  0  0  0  0  0  0  0
    3.7321   -0.1160    0.0000 C   0  5  0  0  0  0  0  0  0  0  0  0
    5.4641   -0.1160    0.0000 C   0  5  0  0  0  0  0  0  0  0  0  0
    2.8660   -0.6160    0.0000 C   0  0  0  0  0  0  0  0  0  0  0  0
    3.2321    0.7500    0.0000 C   0  0  0  0  0  0  0  0  0  0  0  0
    6.3301   -0.6160    0.0000 C   0  0  0  0  0  0  0  0  0  0  0  0
    5.9641    0.7500    0.0000 C   0  0  0  0  0  0  0  0  0  0  0  0
    2.0000   -0.1160    0.0000 C   0  0  0  0  0  0  0  0  0  0  0  0
    3.7321    1.6160    0.0000 C   0  0  0  0  0  0  0  0  0  0  0  0
    7.1962   -0.1160    0.0000 C   0  0  0  0  0  0  0  0  0  0  0  0
    5.4641    1.6160    0.0000 C   0  0  0  0  0  0  0  0  0  0  0  0
    4.0421   -0.6530    0.0000 H   0  0  0  0  0  0  0  0  0  0  0  0
    5.1541   -0.6530    0.0000 H   0  0  0  0  0  0  0  0  0  0  0  0
    2.3100    0.4209    0.0000 H   0  0  0  0  0  0  0  0  0  0  0  0
    1.4631    0.1940    0.0000 H   0  0  0  0  0  0  0  0  0  0  0  0
    1.6900   -0.6530    0.0000 H   0  0  0  0  0  0  0  0  0  0  0  0
    4.2690    1.3060    0.0000 H   0  0  0  0  0  0  0  0  0  0  0  0
    4.0421    2.1530    0.0000 H   0  0  0  0  0  0  0  0  0  0  0  0
    3.1951    1.9260    0.0000 H   0  0  0  0  0  0  0  0  0  0  0  0
    7.5062   -0.6530    0.0000 H   0  0  0  0  0  0  0  0  0  0  0  0
    7.7331    0.1940    0.0000 H   0  0  0  0  0  0  0  0  0  0  0  0
    6.8862    0.4209    0.0000 H   0  0  0  0  0  0  0  0  0  0  0  0
    6.0010    1.9260    0.0000 H   0  0  0  0  0  0  0  0  0  0  0  0
    5.1541    2.1530    0.0000 H   0  0  0  0  0  0  0  0  0  0  0  0
    4.9272    1.3060    0.0000 H   0  0  0  0  0  0  0  0  0  0  0  0
  2  8  2  0  0  0  0
  3  9  2  0  0  0  0
  4 10  2  0  0  0  0
  5 11  2  0  0  0  0
  6  8  1  0  0  0  0
  6  9  1  0  0  0  0
  6 16  1  0  0  0  0
  7 10  1  0  0  0  0
  7 11  1  0  0  0  0
  7 17  1  0  0  0  0
  8 12  1  0  0  0  0
  9 13  1  0  0  0  0
 10 14  1  0  0  0  0
 11 15  1  0  0  0  0
 12 18  1  0  0  0  0
 12 19  1  0  0  0  0
 12 20  1  0  0  0  0
 13 21  1  0  0  0  0
 13 22  1  0  0  0  0
 13 23  1  0  0  0  0
 14 24  1  0  0  0  0
 14 25  1  0  0  0  0
 14 26  1  0  0  0  0
 15 27  1  0  0  0  0
 15 28  1  0  0  0  0
 15 29  1  0  0  0  0
M  CHG  3   1   2   6  -1   7  -1
M  END
> <PUBCHEM_COMPOUND_CID>
13669119

> <PUBCHEM_COMPOUND_CANONICALIZED>
1

> <PUBCHEM_CACTVS_COMPLEXITY>
196

> <PUBCHEM_CACTVS_HBOND_ACCEPTOR>
6

> <PUBCHEM_CACTVS_HBOND_DONOR>
0

> <PUBCHEM_CACTVS_ROTATABLE_BOND>
4

> <PUBCHEM_CACTVS_SUBSKEYS>
AAADccBwOAAAAAAEAAAAAAAAAAAAAAAAAAAAAAAAAAAAAAAAAAAAGgAAAAAACASAgAACAAAAAAAIAIAQAAAAAAAAAAAAAAEAAAAAABIIAAAAAAAAAAAAAAAAAAAAAAAAAAAAAAAAAAAAAAAAAAAAAAAAAA==

> <PUBCHEM_IUPAC_OPENEYE_NAME>
copper bis(pentane-2,4-dione)

> <PUBCHEM_IUPAC_CAS_NAME>
copper bis(pentane-2,4-dione)

> <PUBCHEM_IUPAC_NAME_MARKUP>
copper bis(pentane-2,4-dione)

> <PUBCHEM_IUPAC_NAME>
copper bis(pentane-2,4-dione)

> <PUBCHEM_IUPAC_SYSTEMATIC_NAME>
copper bis(pentane-2,4-dione)

> <PUBCHEM_IUPAC_TRADITIONAL_NAME>
cupric bis(pentane-2,4-dione)

> <PUBCHEM_IUPAC_INCHI>
InChI=1S/2C5H7O2.Cu/c2*1-4(6)3-5(2)7;/h2*3H,1-2H3;/q2*-1;+2

> <PUBCHEM_IUPAC_INCHIKEY>
KMOVDRADWUSGIH-UHFFFAOYSA-N

> <PUBCHEM_EXACT_MASS>
261.018806

> <PUBCHEM_MOLECULAR_FORMULA>
C10H14CuO4

> <PUBCHEM_MOLECULAR_WEIGHT>
261.76

> <PUBCHEM_SMILES>
CC(=O)[CH-]C(=O)C.CC(=O)[CH-]C(=O)C.[Cu+2]

> <PUBCHEM_CONNECTIVITY_SMILES>
CC(=O)[CH-]C(=O)C.CC(=O)[CH-]C(=O)C.[Cu+2]

> <PUBCHEM_CACTVS_TPSA>
68.3

> <PUBCHEM_MONOISOTOPIC_WEIGHT>
261.018806

> <PUBCHEM_TOTAL_CHARGE>
0

> <PUBCHEM_HEAVY_ATOM_COUNT>
15

> <PUBCHEM_ATOM_DEF_STEREO_COUNT>
0

> <PUBCHEM_ATOM_UDEF_STEREO_COUNT>
0

> <PUBCHEM_BOND_DEF_STEREO_COUNT>
0

> <PUBCHEM_BOND_UDEF_STEREO_COUNT>
0

> <PUBCHEM_ISOTOPIC_ATOM_COUNT>
0

> <PUBCHEM_COMPONENT_COUNT>
3

> <PUBCHEM_CACTVS_TAUTO_COUNT>
-1

> <PUBCHEM_NONSTANDARDBOND>
1  6  6
1  7  6

> <PUBCHEM_COORDINATE_TYPE>
1
5
255

$$$$
