73980
  -OEChem-08152605572D

  2  0  0     0  0  0  0  0  0999 V2000
    3.0000    0.0000    0.0000 Se  0  6  0  0  0  0  0  0  0  0  0  0
    2.0000    0.0000    0.0000 Cu  0  2  0  0  0  0  0  0  0  0  0  0
M  CHG  2   1  -2   2   2
M  END
> <PUBCHEM_COMPOUND_CID>
73980

> <PUBCHEM_COMPOUND_CANONICALIZED>
1

> <PUBCHEM_CACTVS_COMPLEXITY>
0

> <PUBCHEM_CACTVS_HBOND_ACCEPTOR>
1

> <PUBCHEM_CACTVS_HBOND_DONOR>
0

> <PUBCHEM_CACTVS_ROTATABLE_BOND>
0

> <PUBCHEM_CACTVS_SUBSKEYS>
AAADcQAAAAAAAAAEIAAAAAAAAAAAAAAAAAAAAAAAAAAAAAAAAAAAAAAAAAAAAAAAAAAAAAAAAAAAAAAAAAAAAAAAAAAAAAAAAAAAAAAAAAAAAAAAAAAAAAAAAAAAAAAAAAAAAAAAAAAAAAAAAAAAAAAAAA==

> <PUBCHEM_IUPAC_OPENEYE_NAME>
copper selenium(2-)

> <PUBCHEM_IUPAC_CAS_NAME>
copper selenium(2-)

> <PUBCHEM_IUPAC_NAME_MARKUP>
copper selenium(2-)

> <PUBCHEM_IUPAC_NAME>
copper selenium(2-)

> <PUBCHEM_IUPAC_SYSTEMATIC_NAME>
copper selenium(2-)

> <PUBCHEM_IUPAC_TRADITIONAL_NAME>
cupric selenium(2-)

> <PUBCHEM_IUPAC_INCHI>
InChI=1S/Cu.Se/q+2;-2

> <PUBCHEM_IUPAC_INCHIKEY>
QMULOZLYOQCZOH-UHFFFAOYSA-N

> <PUBCHEM_EXACT_MASS>
142.84612

> <PUBCHEM_MOLECULAR_FORMULA>
CuSe

> <PUBCHEM_MOLECULAR_WEIGHT>
142.52

> <PUBCHEM_SMILES>
[Cu+2].[Se-2]

> <PUBCHEM_CONNECTIVITY_SMILES>
[Cu+2].[Se-2]

> <PUBCHEM_CACTVS_TPSA>
0

> <PUBCHEM_MONOISOTOPIC_WEIGHT>
142.84612

> <PUBCHEM_TOTAL_CHARGE>
0

> <PUBCHEM_HEAVY_ATOM_COUNT>
2

> <PUBCHEM_ATOM_DEF_STEREO_COUNT>
0

> <PUBCHEM_ATOM_UDEF_STEREO_COUNT>
0

> <PUBCHEM_BOND_DEF_STEREO_COUNT>
0

> <PUBCHEM_BOND_UDEF_STEREO_COUNT>
0

> <PUBCHEM_ISOTOPIC_ATOM_COUNT>
0

> <PUBCHEM_COMPONENT_COUNT>
2

> <PUBCHEM_CACTVS_TAUTO_COUNT>
-1

> <PUBCHEM_COORDINATE_TYPE>
1
5
255

$$$$
