18346908
  -OEChem-08152607382D

  3  1  0     0  0  0  0  0  0999 V2000
    2.8660   -0.2500    0.0000 Cu  0  0  0  0  0  0  0  0  0  0  0  0
    3.7321    0.2500    0.0000 Cu  0  0  0  0  0  0  0  0  0  0  0  0
    2.0000    0.2500    0.0000 O   0  0  0  0  0  0  0  0  0  0  0  0
  1  3  2  0  0  0  0
M  END
> <PUBCHEM_COMPOUND_CID>
18346908

> <PUBCHEM_COMPOUND_CANONICALIZED>
1

> <PUBCHEM_CACTVS_COMPLEXITY>
2.8

> <PUBCHEM_CACTVS_HBOND_ACCEPTOR>
1

> <PUBCHEM_CACTVS_HBOND_DONOR>
0

> <PUBCHEM_CACTVS_ROTATABLE_BOND>
0

> <PUBCHEM_CACTVS_SUBSKEYS>
AAADcQAAIAAAAAAEAAAAAAAAAAAAAAAAAAAAAAAAAAAAAAAAAAAAAAAAAAAAAAAAAAAAAAAAAAAAAAAAAAAAAAAAAAAAAAAAAAAAAAAAAAAAAAAAAAAAAAAAAAAAAAAAAAAAAAAAAAAAAAAAAAAAAAAAAA==

> <PUBCHEM_IUPAC_OPENEYE_NAME>
copper;oxocopper

> <PUBCHEM_IUPAC_CAS_NAME>
copper;oxocopper

> <PUBCHEM_IUPAC_NAME_MARKUP>
copper;oxocopper

> <PUBCHEM_IUPAC_NAME>
copper;oxocopper

> <PUBCHEM_IUPAC_SYSTEMATIC_NAME>
copper;oxidanylidenecopper

> <PUBCHEM_IUPAC_TRADITIONAL_NAME>
copper;ketocopper

> <PUBCHEM_IUPAC_INCHI>
InChI=1S/2Cu.O

> <PUBCHEM_IUPAC_INCHIKEY>
BERDEBHAJNAUOM-UHFFFAOYSA-N

> <PUBCHEM_EXACT_MASS>
141.854109

> <PUBCHEM_MOLECULAR_FORMULA>
Cu2O

> <PUBCHEM_MOLECULAR_WEIGHT>
143.09

> <PUBCHEM_SMILES>
O=[Cu].[Cu]

> <PUBCHEM_CONNECTIVITY_SMILES>
O=[Cu].[Cu]

> <PUBCHEM_CACTVS_TPSA>
17.1

> <PUBCHEM_MONOISOTOPIC_WEIGHT>
141.854109

> <PUBCHEM_TOTAL_CHARGE>
0

> <PUBCHEM_HEAVY_ATOM_COUNT>
3

> <PUBCHEM_ATOM_DEF_STEREO_COUNT>
0

> <PUBCHEM_ATOM_UDEF_STEREO_COUNT>
0

> <PUBCHEM_BOND_DEF_STEREO_COUNT>
0

> <PUBCHEM_BOND_UDEF_STEREO_COUNT>
0

> <PUBCHEM_ISOTOPIC_ATOM_COUNT>
0

> <PUBCHEM_COMPONENT_COUNT>
2

> <PUBCHEM_CACTVS_TAUTO_COUNT>
-1

> <PUBCHEM_NONSTANDARDBOND>
1  2  6

> <PUBCHEM_COORDINATE_TYPE>
1
5
255

$$$$
