592
  -OEChem-08152602592D

 93 95  0     1  0  0  0  0  0999 V2000
   21.4481    2.6208    0.0000 S   0  0  0  0  0  0  0  0  0  0  0  0
    5.3548    3.0224    0.0000 P   0  0  0  0  0  0  0  0  0  0  0  0
    8.4752    1.7827    0.0000 P   0  0  3  0  0  0  0  0  0  0  0  0
   10.1980    1.9607    0.0000 P   0  0  3  0  0  0  0  0  0  0  0  0
    5.9405    0.0182    0.0000 O   0  0  0  0  0  0  0  0  0  0  0  0
    4.6844    2.2805    0.0000 O   0  0  0  0  0  0  0  0  0  0  0  0
    3.4026    0.5226    0.0000 O   0  0  0  0  0  0  0  0  0  0  0  0
    7.6651    1.1963    0.0000 O   0  0  0  0  0  0  0  0  0  0  0  0
    6.0252    3.7644    0.0000 O   0  0  0  0  0  0  0  0  0  0  0  0
    4.6128    3.6929    0.0000 O   0  0  0  0  0  0  0  0  0  0  0  0
    9.2852    2.3690    0.0000 O   0  0  0  0  0  0  0  0  0  0  0  0
   11.1109    1.5524    0.0000 O   0  0  0  0  0  0  0  0  0  0  0  0
    6.0968    2.3520    0.0000 O   0  0  0  0  0  0  0  0  0  0  0  0
    9.0615    0.9726    0.0000 O   0  0  0  0  0  0  0  0  0  0  0  0
   13.8494    0.3275    0.0000 O   0  0  0  0  0  0  0  0  0  0  0  0
    7.8888    2.5927    0.0000 O   0  0  0  0  0  0  0  0  0  0  0  0
   10.6063    2.8736    0.0000 O   0  0  0  0  0  0  0  0  0  0  0  0
    9.7897    1.0479    0.0000 O   0  0  0  0  0  0  0  0  0  0  0  0
   14.4538    2.9032    0.0000 O   0  0  0  0  0  0  0  0  0  0  0  0
   17.8996    3.2594    0.0000 O   0  0  0  0  0  0  0  0  0  0  0  0
   22.4638    1.2178    0.0000 O   0  0  0  0  0  0  0  0  0  0  0  0
    4.6783   -1.2397    0.0000 N   0  0  0  0  0  0  0  0  0  0  0  0
    4.6783   -2.8492    0.0000 N   0  0  0  0  0  0  0  0  0  0  0  0
    2.8660   -1.0444    0.0000 N   0  0  0  0  0  0  0  0  0  0  0  0
    2.0000   -2.5444    0.0000 N   0  0  0  0  0  0  0  0  0  0  0  0
    2.8660   -4.0444    0.0000 N   0  0  0  0  0  0  0  0  0  0  0  0
   15.4695    1.5002    0.0000 N   0  0  0  0  0  0  0  0  0  0  0  0
   18.9152    1.8564    0.0000 N   0  0  0  0  0  0  0  0  0  0  0  0
    4.9917    1.3289    0.0000 C   0  0  3  0  0  0  0  0  0  0  0  0
    4.4026    0.5209    0.0000 C   0  0  3  0  0  0  0  0  0  0  0  0
    5.9423    1.0182    0.0000 C   0  0  3  0  0  0  0  0  0  0  0  0
    4.9889   -0.2892    0.0000 C   0  0  3  0  0  0  0  0  0  0  0  0
    6.7523    1.6046    0.0000 C   0  0  0  0  0  0  0  0  0  0  0  0
    3.7321   -1.5444    0.0000 C   0  0  0  0  0  0  0  0  0  0  0  0
    5.2619   -2.0444    0.0000 C   0  0  0  0  0  0  0  0  0  0  0  0
    3.7321   -2.5444    0.0000 C   0  0  0  0  0  0  0  0  0  0  0  0
   12.8337    1.7305    0.0000 C   0  0  0  0  0  0  0  0  0  0  0  0
   13.7466    1.3222    0.0000 C   0  0  3  0  0  0  0  0  0  0  0  0
   11.9209    2.1388    0.0000 C   0  0  0  0  0  0  0  0  0  0  0  0
    2.8660   -3.0444    0.0000 C   0  0  0  0  0  0  0  0  0  0  0  0
   13.2421    2.6433    0.0000 C   0  0  0  0  0  0  0  0  0  0  0  0
   12.4254    0.8176    0.0000 C   0  0  0  0  0  0  0  0  0  0  0  0
    2.0000   -1.5444    0.0000 C   0  0  0  0  0  0  0  0  0  0  0  0
   14.5566    1.9085    0.0000 C   0  0  0  0  0  0  0  0  0  0  0  0
   16.2795    2.0866    0.0000 C   0  0  0  0  0  0  0  0  0  0  0  0
   17.1923    1.6783    0.0000 C   0  0  0  0  0  0  0  0  0  0  0  0
   18.0024    2.2647    0.0000 C   0  0  0  0  0  0  0  0  0  0  0  0
   19.7252    2.4428    0.0000 C   0  0  0  0  0  0  0  0  0  0  0  0
   20.6381    2.0344    0.0000 C   0  0  0  0  0  0  0  0  0  0  0  0
   22.3610    2.2125    0.0000 C   0  0  0  0  0  0  0  0  0  0  0  0
   23.1710    2.7989    0.0000 C   0  0  0  0  0  0  0  0  0  0  0  0
   24.0838    2.3906    0.0000 C   0  0  0  0  0  0  0  0  0  0  0  0
   24.8939    2.9770    0.0000 C   0  0  0  0  0  0  0  0  0  0  0  0
    5.4309    1.7665    0.0000 H   0  0  0  0  0  0  0  0  0  0  0  0
    4.1220    1.0738    0.0000 H   0  0  0  0  0  0  0  0  0  0  0  0
    6.4942    0.7358    0.0000 H   0  0  0  0  0  0  0  0  0  0  0  0
    5.4266   -0.7283    0.0000 H   0  0  0  0  0  0  0  0  0  0  0  0
    7.0999    2.1180    0.0000 H   0  0  0  0  0  0  0  0  0  0  0  0
    6.3070    2.0361    0.0000 H   0  0  0  0  0  0  0  0  0  0  0  0
    3.0935    1.0601    0.0000 H   0  0  0  0  0  0  0  0  0  0  0  0
    5.8819   -2.0444    0.0000 H   0  0  0  0  0  0  0  0  0  0  0  0
   13.2444    0.9586    0.0000 H   0  0  0  0  0  0  0  0  0  0  0  0
   12.2685    2.6522    0.0000 H   0  0  0  0  0  0  0  0  0  0  0  0
   11.4757    2.5703    0.0000 H   0  0  0  0  0  0  0  0  0  0  0  0
   13.8080    2.3902    0.0000 H   0  0  0  0  0  0  0  0  0  0  0  0
   13.4952    3.2093    0.0000 H   0  0  0  0  0  0  0  0  0  0  0  0
   12.6761    2.8965    0.0000 H   0  0  0  0  0  0  0  0  0  0  0  0
   11.8595    1.0708    0.0000 H   0  0  0  0  0  0  0  0  0  0  0  0
   12.1723    0.2517    0.0000 H   0  0  0  0  0  0  0  0  0  0  0  0
   12.9914    0.5645    0.0000 H   0  0  0  0  0  0  0  0  0  0  0  0
    5.8346    4.3544    0.0000 H   0  0  0  0  0  0  0  0  0  0  0  0
    4.0228    3.5023    0.0000 H   0  0  0  0  0  0  0  0  0  0  0  0
    1.4631   -1.2344    0.0000 H   0  0  0  0  0  0  0  0  0  0  0  0
    8.8084    0.4067    0.0000 H   0  0  0  0  0  0  0  0  0  0  0  0
   14.4154    0.0743    0.0000 H   0  0  0  0  0  0  0  0  0  0  0  0
    2.3291   -4.3544    0.0000 H   0  0  0  0  0  0  0  0  0  0  0  0
    3.4030   -4.3544    0.0000 H   0  0  0  0  0  0  0  0  0  0  0  0
   15.5332    0.8835    0.0000 H   0  0  0  0  0  0  0  0  0  0  0  0
   16.6271    2.6000    0.0000 H   0  0  0  0  0  0  0  0  0  0  0  0
   15.8342    2.5181    0.0000 H   0  0  0  0  0  0  0  0  0  0  0  0
   10.2428    3.3758    0.0000 H   0  0  0  0  0  0  0  0  0  0  0  0
   16.8447    1.1649    0.0000 H   0  0  0  0  0  0  0  0  0  0  0  0
   17.6376    1.2468    0.0000 H   0  0  0  0  0  0  0  0  0  0  0  0
   18.9789    1.2397    0.0000 H   0  0  0  0  0  0  0  0  0  0  0  0
   20.0728    2.9562    0.0000 H   0  0  0  0  0  0  0  0  0  0  0  0
   19.2800    2.8742    0.0000 H   0  0  0  0  0  0  0  0  0  0  0  0
   20.2905    1.5210    0.0000 H   0  0  0  0  0  0  0  0  0  0  0  0
   21.0833    1.6030    0.0000 H   0  0  0  0  0  0  0  0  0  0  0  0
   23.1072    3.4156    0.0000 H   0  0  0  0  0  0  0  0  0  0  0  0
   24.1476    1.7739    0.0000 H   0  0  0  0  0  0  0  0  0  0  0  0
   25.2574    2.4747    0.0000 H   0  0  0  0  0  0  0  0  0  0  0  0
   25.3961    3.3405    0.0000 H   0  0  0  0  0  0  0  0  0  0  0  0
   24.5303    3.4792    0.0000 H   0  0  0  0  0  0  0  0  0  0  0  0
  1 49  1  0  0  0  0
  1 50  1  0  0  0  0
  2  6  1  0  0  0  0
  2  9  1  0  0  0  0
  2 10  1  0  0  0  0
  2 13  2  0  0  0  0
  3  8  1  0  0  0  0
  3 11  1  0  0  0  0
  3 14  1  0  0  0  0
  3 16  2  0  0  0  0
  4 11  1  0  0  0  0
  4 12  1  0  0  0  0
  4 17  1  0  0  0  0
  4 18  2  0  0  0  0
  5 31  1  0  0  0  0
  5 32  1  0  0  0  0
  6 29  1  0  0  0  0
  7 30  1  0  0  0  0
  7 60  1  0  0  0  0
  8 33  1  0  0  0  0
  9 71  1  0  0  0  0
 10 72  1  0  0  0  0
 12 39  1  0  0  0  0
 14 74  1  0  0  0  0
 15 38  1  0  0  0  0
 15 75  1  0  0  0  0
 17 81  1  0  0  0  0
 19 44  2  0  0  0  0
 20 47  2  0  0  0  0
 21 50  2  0  0  0  0
 22 32  1  0  0  0  0
 22 34  1  0  0  0  0
 22 35  1  0  0  0  0
 23 35  2  0  0  0  0
 23 36  1  0  0  0  0
 24 34  2  0  0  0  0
 24 43  1  0  0  0  0
 25 40  1  0  0  0  0
 25 43  2  0  0  0  0
 26 40  1  0  0  0  0
 26 76  1  0  0  0  0
 26 77  1  0  0  0  0
 27 44  1  0  0  0  0
 27 45  1  0  0  0  0
 27 78  1  0  0  0  0
 28 47  1  0  0  0  0
 28 48  1  0  0  0  0
 28 84  1  0  0  0  0
 29 30  1  0  0  0  0
 29 31  1  0  0  0  0
 29 54  1  0  0  0  0
 30 32  1  0  0  0  0
 30 55  1  0  0  0  0
 31 33  1  0  0  0  0
 31 56  1  0  0  0  0
 32 57  1  0  0  0  0
 33 58  1  0  0  0  0
 33 59  1  0  0  0  0
 34 36  1  0  0  0  0
 35 61  1  0  0  0  0
 36 40  2  0  0  0  0
 37 38  1  0  0  0  0
 37 39  1  0  0  0  0
 37 41  1  0  0  0  0
 37 42  1  0  0  0  0
 38 44  1  0  0  0  0
 38 62  1  0  0  0  0
 39 63  1  0  0  0  0
 39 64  1  0  0  0  0
 41 65  1  0  0  0  0
 41 66  1  0  0  0  0
 41 67  1  0  0  0  0
 42 68  1  0  0  0  0
 42 69  1  0  0  0  0
 42 70  1  0  0  0  0
 43 73  1  0  0  0  0
 45 46  1  0  0  0  0
 45 79  1  0  0  0  0
 45 80  1  0  0  0  0
 46 47  1  0  0  0  0
 46 82  1  0  0  0  0
 46 83  1  0  0  0  0
 48 49  1  0  0  0  0
 48 85  1  0  0  0  0
 48 86  1  0  0  0  0
 49 87  1  0  0  0  0
 49 88  1  0  0  0  0
 50 51  1  0  0  0  0
 51 52  2  3  0  0  0
 51 89  1  0  0  0  0
 52 53  1  0  0  0  0
 52 90  1  0  0  0  0
 53 91  1  0  0  0  0
 53 92  1  0  0  0  0
 53 93  1  0  0  0  0
M  END
> <PUBCHEM_COMPOUND_CID>
592

> <PUBCHEM_COMPOUND_CANONICALIZED>
1

> <PUBCHEM_CACTVS_COMPLEXITY>
1460

> <PUBCHEM_CACTVS_HBOND_ACCEPTOR>
22

> <PUBCHEM_CACTVS_HBOND_DONOR>
9

> <PUBCHEM_CACTVS_ROTATABLE_BOND>
21

> <PUBCHEM_CACTVS_SUBSKEYS>
AAADcfB7vgNAAAAAAAAAAAAAAAAAAWJAAAAsAAAAAAAAAFgB+AAAHgQQCCAADhzl1waH8L/MFxioQSdzdIKAgC0RELAJWKFoVFCDWBpAyUAeRAgPFgLzAaDyMAIJAAAAAAAAAAAAAAAAAAAAAAAAAAAAAA==

> <PUBCHEM_IUPAC_OPENEYE_NAME>
S-[2-[3-[[4-[[[5-(6-aminopurin-9-yl)-4-hydroxy-3-phosphonooxy-tetrahydrofuran-2-yl]methoxy-hydroxy-phosphoryl]oxy-hydroxy-phosphoryl]oxy-2-hydroxy-3,3-dimethyl-butanoyl]amino]propanoylamino]ethyl] but-2-enethioate

> <PUBCHEM_IUPAC_CAS_NAME>
2-butenethioic acid S-[2-[[3-[[4-[[[5-(6-aminopurin-9-yl)-4-hydroxy-3-phosphonooxy-2-oxolanyl]methoxy-hydroxyphosphoryl]oxy-hydroxyphosphoryl]oxy-2-hydroxy-3,3-dimethyl-1-oxobutyl]amino]-1-oxopropyl]amino]ethyl] ester

> <PUBCHEM_IUPAC_NAME_MARKUP>
<I>S</I>-[2-[3-[[4-[[[5-(6-aminopurin-9-yl)-4-hydroxy-3-phosphonooxyoxolan-2-yl]methoxy-hydroxyphosphoryl]oxy-hydroxyphosphoryl]oxy-2-hydroxy-3,3-dimethylbutanoyl]amino]propanoylamino]ethyl] but-2-enethioate

> <PUBCHEM_IUPAC_NAME>
S-[2-[3-[[4-[[[5-(6-aminopurin-9-yl)-4-hydroxy-3-phosphonooxyoxolan-2-yl]methoxy-hydroxyphosphoryl]oxy-hydroxyphosphoryl]oxy-2-hydroxy-3,3-dimethylbutanoyl]amino]propanoylamino]ethyl] but-2-enethioate

> <PUBCHEM_IUPAC_SYSTEMATIC_NAME>
S-[2-[3-[[4-[[[5-(6-aminopurin-9-yl)-4-oxidanyl-3-phosphonooxy-oxolan-2-yl]methoxy-oxidanyl-phosphoryl]oxy-oxidanyl-phosphoryl]oxy-3,3-dimethyl-2-oxidanyl-butanoyl]amino]propanoylamino]ethyl] but-2-enethioate

> <PUBCHEM_IUPAC_TRADITIONAL_NAME>
but-2-enethioic acid S-[2-[3-[[4-[[(5-adenin-9-yl-4-hydroxy-3-phosphonooxy-tetrahydrofuran-2-yl)methoxy-hydroxy-phosphoryl]oxy-hydroxy-phosphoryl]oxy-2-hydroxy-3,3-dimethyl-butanoyl]amino]propanoylamino]ethyl] ester

> <PUBCHEM_IUPAC_INCHI>
InChI=1S/C25H40N7O17P3S/c1-4-5-16(34)53-9-8-27-15(33)6-7-28-23(37)20(36)25(2,3)11-46-52(43,44)49-51(41,42)45-10-14-19(48-50(38,39)40)18(35)24(47-14)32-13-31-17-21(26)29-12-30-22(17)32/h4-5,12-14,18-20,24,35-36H,6-11H2,1-3H3,(H,27,33)(H,28,37)(H,41,42)(H,43,44)(H2,26,29,30)(H2,38,39,40)

> <PUBCHEM_IUPAC_INCHIKEY>
KFWWCMJSYSSPSK-UHFFFAOYSA-N

> <PUBCHEM_XLOGP3>
-4.8

> <PUBCHEM_EXACT_MASS>
835.14142500

> <PUBCHEM_MOLECULAR_FORMULA>
C25H40N7O17P3S

> <PUBCHEM_MOLECULAR_WEIGHT>
835.6

> <PUBCHEM_SMILES>
CC=CC(=O)SCCNC(=O)CCNC(=O)C(C(C)(C)COP(=O)(O)OP(=O)(O)OCC1C(C(C(O1)N2C=NC3=C(N=CN=C32)N)O)OP(=O)(O)O)O

> <PUBCHEM_CONNECTIVITY_SMILES>
CC=CC(=O)SCCNC(=O)CCNC(=O)C(C(C)(C)COP(=O)(O)OP(=O)(O)OCC1C(C(C(O1)N2C=NC3=C(N=CN=C32)N)O)OP(=O)(O)O)O

> <PUBCHEM_CACTVS_TPSA>
389

> <PUBCHEM_MONOISOTOPIC_WEIGHT>
835.14142500

> <PUBCHEM_TOTAL_CHARGE>
0

> <PUBCHEM_HEAVY_ATOM_COUNT>
53

> <PUBCHEM_ATOM_DEF_STEREO_COUNT>
0

> <PUBCHEM_ATOM_UDEF_STEREO_COUNT>
5

> <PUBCHEM_BOND_DEF_STEREO_COUNT>
0

> <PUBCHEM_BOND_UDEF_STEREO_COUNT>
1

> <PUBCHEM_ISOTOPIC_ATOM_COUNT>
0

> <PUBCHEM_COMPONENT_COUNT>
1

> <PUBCHEM_CACTVS_TAUTO_COUNT>
-1

> <PUBCHEM_COORDINATE_TYPE>
1
5
255

> <PUBCHEM_BONDANNOTATIONS>
38  15  3
32  22  3
22  34  8
22  35  8
23  35  8
23  36  8
24  34  8
24  43  8
25  40  8
25  43  8
31  33  3
34  36  8
36  40  8
51  52  1
29  6  3
30  7  3

$$$$
