62652
  -OEChem-08152604422D

  2  1  0     0  0  0  0  0  0999 V2000
    3.0000    0.0000    0.0000 Cu  0  0  0  0  0  0  0  0  0  0  0  0
    2.0000    0.0000    0.0000 Cl  0  0  0  0  0  0  0  0  0  0  0  0
  1  2  1  0  0  0  0
M  END
> <PUBCHEM_COMPOUND_CID>
62652

> <PUBCHEM_COMPOUND_CANONICALIZED>
1

> <PUBCHEM_CACTVS_COMPLEXITY>
2

> <PUBCHEM_CACTVS_HBOND_ACCEPTOR>
0

> <PUBCHEM_CACTVS_HBOND_DONOR>
0

> <PUBCHEM_CACTVS_ROTATABLE_BOND>
0

> <PUBCHEM_CACTVS_SUBSKEYS>
AAADcQAAAAAEAAAEAAAAAAAAAAAAAAAAAAAAAAAAAAAAAAAAAAAAAAAAAAAAAAAAAAAAAAAAAAAAAAAAAAAAAAAAAAAAAAAAAAAAAAAAAAAAAAAAAAAAAAAAAAAAAAAAAAAAAAAAAAAAAAAAAAAAAAAAAA==

> <PUBCHEM_IUPAC_OPENEYE_NAME>
chlorocopper

> <PUBCHEM_IUPAC_CAS_NAME>
chlorocopper

> <PUBCHEM_IUPAC_NAME_MARKUP>
chlorocopper

> <PUBCHEM_IUPAC_NAME>
chlorocopper

> <PUBCHEM_IUPAC_SYSTEMATIC_NAME>
chloranylcopper

> <PUBCHEM_IUPAC_TRADITIONAL_NAME>
chlorocopper

> <PUBCHEM_IUPAC_INCHI>
InChI=1S/ClH.Cu/h1H;/q;+1/p-1

> <PUBCHEM_IUPAC_INCHIKEY>
OXBLHERUFWYNTN-UHFFFAOYSA-M

> <PUBCHEM_EXACT_MASS>
97.898450

> <PUBCHEM_MOLECULAR_FORMULA>
ClCu

> <PUBCHEM_MOLECULAR_WEIGHT>
99.00

> <PUBCHEM_SMILES>
Cl[Cu]

> <PUBCHEM_CONNECTIVITY_SMILES>
Cl[Cu]

> <PUBCHEM_CACTVS_TPSA>
0

> <PUBCHEM_MONOISOTOPIC_WEIGHT>
97.898450

> <PUBCHEM_TOTAL_CHARGE>
0

> <PUBCHEM_HEAVY_ATOM_COUNT>
2

> <PUBCHEM_ATOM_DEF_STEREO_COUNT>
0

> <PUBCHEM_ATOM_UDEF_STEREO_COUNT>
0

> <PUBCHEM_BOND_DEF_STEREO_COUNT>
0

> <PUBCHEM_BOND_UDEF_STEREO_COUNT>
0

> <PUBCHEM_ISOTOPIC_ATOM_COUNT>
0

> <PUBCHEM_COMPONENT_COUNT>
1

> <PUBCHEM_CACTVS_TAUTO_COUNT>
-1

> <PUBCHEM_COORDINATE_TYPE>
1
5
255

$$$$
