101943146
  -OEChem-08152606442D

  4  0  0     0  0  0  0  0  0999 V2000
    0.0000    2.5000    0.0000 Cm  0  0  0  0  0  0  0  0  0  0  0  0
    0.0000    0.0000    0.0000 Cl  0  5  0  0  0  0  0  0  0  0  0  0
    2.5000    0.0000    0.0000 Cl  0  5  0  0  0  0  0  0  0  0  0  0
    2.5000    2.5000    0.0000 Cl  0  5  0  0  0  0  0  0  0  0  0  0
M  CHG  3   2  -1   3  -1   4  -1
M  END
> <PUBCHEM_COMPOUND_CID>
101943146

> <PUBCHEM_COMPOUND_CANONICALIZED>
1

> <PUBCHEM_CACTVS_COMPLEXITY>
0

> <PUBCHEM_CACTVS_HBOND_ACCEPTOR>
3

> <PUBCHEM_CACTVS_HBOND_DONOR>
0

> <PUBCHEM_CACTVS_ROTATABLE_BOND>
0

> <PUBCHEM_CACTVS_SUBSKEYS>
AAADcQAAAAAGAAAAAAAAAAAAAAAAAAAAAAAAAAAAAAAAAAAAAAAAAAAAAAAAAAAAAAAAAAAAAAAAAAAAAAAAAAAAAAAAAAAAAAAAAAAAAAAAAAAAAAAAAAAAAAAAAAAAAAAAAAAAAAAAAAAAAAAAAAAAAA==

> <PUBCHEM_IUPAC_OPENEYE_NAME>
curium trichloride

> <PUBCHEM_IUPAC_CAS_NAME>
curium trichloride

> <PUBCHEM_IUPAC_NAME_MARKUP>
curium trichloride

> <PUBCHEM_IUPAC_NAME>
curium trichloride

> <PUBCHEM_IUPAC_SYSTEMATIC_NAME>
curium trichloride

> <PUBCHEM_IUPAC_TRADITIONAL_NAME>
curium trichloride

> <PUBCHEM_IUPAC_INCHI>
InChI=1S/3ClH.Cm/h3*1H;/p-3

> <PUBCHEM_IUPAC_INCHIKEY>
HBBAVPPADNOFMC-UHFFFAOYSA-K

> <PUBCHEM_EXACT_MASS>
351.97691

> <PUBCHEM_MOLECULAR_FORMULA>
Cl3Cm-3

> <PUBCHEM_MOLECULAR_WEIGHT>
353.42

> <PUBCHEM_SMILES>
[Cl-].[Cl-].[Cl-].[Cm]

> <PUBCHEM_CONNECTIVITY_SMILES>
[Cl-].[Cl-].[Cl-].[Cm]

> <PUBCHEM_CACTVS_TPSA>
0

> <PUBCHEM_MONOISOTOPIC_WEIGHT>
351.97691

> <PUBCHEM_TOTAL_CHARGE>
-3

> <PUBCHEM_HEAVY_ATOM_COUNT>
4

> <PUBCHEM_ATOM_DEF_STEREO_COUNT>
0

> <PUBCHEM_ATOM_UDEF_STEREO_COUNT>
0

> <PUBCHEM_BOND_DEF_STEREO_COUNT>
0

> <PUBCHEM_BOND_UDEF_STEREO_COUNT>
0

> <PUBCHEM_ISOTOPIC_ATOM_COUNT>
0

> <PUBCHEM_COMPONENT_COUNT>
4

> <PUBCHEM_CACTVS_TAUTO_COUNT>
-1

> <PUBCHEM_COORDINATE_TYPE>
1
5
255

$$$$
