593
  -OEChem-08152602593D

 45 46  0     1  0  0  0  0  0999 V2000
   -2.8216    2.0132   -1.1094 P   0  0  1  0  0  0  0  0  0  0  0  0
   -4.2276   -0.5688   -0.9620 P   0  0  2  0  0  0  0  0  0  0  0  0
   -3.0168   -2.6123    0.7878 P   0  0  0  0  0  0  0  0  0  0  0  0
    0.8234    0.7075    0.0990 O   0  0  0  0  0  0  0  0  0  0  0  0
    1.1869    2.7224    3.0363 O   0  0  0  0  0  0  0  0  0  0  0  0
    2.5659   -0.0601    3.1071 O   0  0  0  0  0  0  0  0  0  0  0  0
   -1.3567    2.4006   -0.5418 O   0  0  0  0  0  0  0  0  0  0  0  0
    3.5679   -2.2593    0.7707 O   0  0  0  0  0  0  0  0  0  0  0  0
   -2.9759    0.4367   -0.7921 O   0  0  0  0  0  0  0  0  0  0  0  0
   -3.8509    2.7025   -0.0689 O   0  0  0  0  0  0  0  0  0  0  0  0
   -3.0571    2.3771   -2.5466 O   0  0  0  0  0  0  0  0  0  0  0  0
   -3.6005   -2.0117   -0.5943 O   0  0  0  0  0  0  0  0  0  0  0  0
   -4.4450   -0.6494   -2.5618 O   0  0  0  0  0  0  0  0  0  0  0  0
   -5.4530   -0.2023   -0.1776 O   0  0  0  0  0  0  0  0  0  0  0  0
   -2.4274   -4.0498    0.3418 O   0  0  0  0  0  0  0  0  0  0  0  0
   -1.6909   -1.7283    1.0559 O   0  0  0  0  0  0  0  0  0  0  0  0
   -4.0020   -2.6504    1.9187 O   0  0  0  0  0  0  0  0  0  0  0  0
    2.9633   -0.2116   -0.1051 N   0  0  0  0  0  0  0  0  0  0  0  0
    4.8382   -1.4799   -0.9413 N   0  0  0  0  0  0  0  0  0  0  0  0
    6.1369   -0.6748   -2.6944 N   0  0  0  0  0  0  0  0  0  0  0  0
    0.9505    1.5385    2.2994 C   0  0  2  0  0  0  0  0  0  0  0  0
    2.2282    0.7801    2.0185 C   0  0  2  0  0  0  0  0  0  0  0  0
    0.4764    1.8538    0.8921 C   0  0  2  0  0  0  0  0  0  0  0  0
    1.8522   -0.0250    0.7844 C   0  0  1  0  0  0  0  0  0  0  0  0
   -1.0178    2.1061    0.8027 C   0  0  0  0  0  0  0  0  0  0  0  0
    3.2381    0.7722   -1.0425 C   0  0  0  0  0  0  0  0  0  0  0  0
    3.7836   -1.3669   -0.0515 C   0  0  0  0  0  0  0  0  0  0  0  0
    4.2480    0.6829   -1.9059 C   0  0  0  0  0  0  0  0  0  0  0  0
    5.0836   -0.5431   -1.8193 C   0  0  0  0  0  0  0  0  0  0  0  0
    0.2366    0.9167    2.8532 H   0  0  0  0  0  0  0  0  0  0  0  0
    3.0672    1.4648    1.8484 H   0  0  0  0  0  0  0  0  0  0  0  0
    1.0114    2.7166    0.4747 H   0  0  0  0  0  0  0  0  0  0  0  0
    1.4389   -1.0041    1.0541 H   0  0  0  0  0  0  0  0  0  0  0  0
   -1.3111    2.9571    1.4249 H   0  0  0  0  0  0  0  0  0  0  0  0
   -1.5709    1.2229    1.1379 H   0  0  0  0  0  0  0  0  0  0  0  0
    0.3386    3.1891    3.1244 H   0  0  0  0  0  0  0  0  0  0  0  0
    1.8237   -0.6668    3.2695 H   0  0  0  0  0  0  0  0  0  0  0  0
    2.6156    1.6585   -1.0553 H   0  0  0  0  0  0  0  0  0  0  0  0
    4.4740    1.4508   -2.6335 H   0  0  0  0  0  0  0  0  0  0  0  0
   -4.0427    3.6606   -0.1560 H   0  0  0  0  0  0  0  0  0  0  0  0
    6.3531    0.0348   -3.3867 H   0  0  0  0  0  0  0  0  0  0  0  0
    6.7338   -1.4946   -2.6707 H   0  0  0  0  0  0  0  0  0  0  0  0
   -4.9045    0.0888   -3.0159 H   0  0  0  0  0  0  0  0  0  0  0  0
   -2.0923   -4.6606    1.0324 H   0  0  0  0  0  0  0  0  0  0  0  0
   -1.1967   -1.8524    1.8942 H   0  0  0  0  0  0  0  0  0  0  0  0
  1  7  1  0  0  0  0
  1  9  1  0  0  0  0
  1 10  1  0  0  0  0
  1 11  2  0  0  0  0
  2  9  1  0  0  0  0
  2 12  1  0  0  0  0
  2 13  1  0  0  0  0
  2 14  2  0  0  0  0
  3 12  1  0  0  0  0
  3 15  1  0  0  0  0
  3 16  1  0  0  0  0
  3 17  2  0  0  0  0
  4 23  1  0  0  0  0
  4 24  1  0  0  0  0
  5 21  1  0  0  0  0
  5 36  1  0  0  0  0
  6 22  1  0  0  0  0
  6 37  1  0  0  0  0
  7 25  1  0  0  0  0
  8 27  2  0  0  0  0
 10 40  1  0  0  0  0
 13 43  1  0  0  0  0
 15 44  1  0  0  0  0
 16 45  1  0  0  0  0
 18 24  1  0  0  0  0
 18 26  1  0  0  0  0
 18 27  1  0  0  0  0
 19 27  1  0  0  0  0
 19 29  2  0  0  0  0
 20 29  1  0  0  0  0
 20 41  1  0  0  0  0
 20 42  1  0  0  0  0
 21 22  1  0  0  0  0
 21 23  1  0  0  0  0
 21 30  1  0  0  0  0
 22 24  1  0  0  0  0
 22 31  1  0  0  0  0
 23 25  1  0  0  0  0
 23 32  1  0  0  0  0
 24 33  1  0  0  0  0
 25 34  1  0  0  0  0
 25 35  1  0  0  0  0
 26 28  2  0  0  0  0
 26 38  1  0  0  0  0
 28 29  1  0  0  0  0
 28 39  1  0  0  0  0
M  END
> <PUBCHEM_COMPOUND_CID>
593

> <PUBCHEM_CONFORMER_RMSD>
1.4

> <PUBCHEM_CONFORMER_DIVERSEORDER>
33
202
19
359
143
380
269
125
273
144
244
81
28
257
308
200
392
326
334
201
232
186
196
349
330
300
212
117
45
2
303
238
92
288
154
97
240
298
262
369
63
276
137
213
360
351
132
188
23
364
162
391
66
222
150
267
118
77
191
204
116
87
90
376
134
78
263
199
182
138
27
203
176
357
290
69
17
324
390
335
366
51
367
31
329
41
95
153
85
84
42
30
1
371
393
388
177
65
211
328
266
254
13
114
361
34
208
32
307
216
322
347
80
3
89
53
181
381
20
105
109
382
155
194
243
375
49
310
129
67
226
270
306
313
93
314
344
159
139
193
236
225
264
70
281
394
128
180
219
286
9
12
320
311
173
224
68
340
377
75
363
50
268
304
151
119
327
258
198
161
72
37
43
44
255
251
299
18
384
48
140
214
60
83
383
285
345
79
346
370
355
15
373
249
56
99
29
374
160
26
38
233
195
235
98
218
302
323
354
163
294
157
296
348
57
178
221
352
342
7
52
135
103
62
115
192
133
152
82
331
277
231
312
158
210
297
123
185
292
14
321
47
316
55
167
265
124
24
94
149
91
242
247
111
230
74
205
36
71
234
337
76
146
5
319
280
11
206
112
100
175
378
338
274
40
16
315
217
172
282
305
309
248
318
166
10
317
325
353
126
22
252
107
239
223
190
246
174
141
136
197
368
187
227
241
6
58
332
106
120
293
46
386
25
156
121
147
237
250
271
54
104
358
183
362
256
171
379
209
102
142
283
389
59
148
61
88
86
356
189
343
291
127
110
165
168
336
253
170
220
260
179
122
387
64
35
289
215
228
350
245
301
145
295
341
275
278
261
339
101
113
259
108
131
4
130
287
207
164
333
229
8
73
169
21
385
272
39
372
96
279
365
284
184

> <PUBCHEM_MMFF94_PARTIAL_CHARGES>
39
1 1.51
10 -0.77
11 -0.7
12 -0.54
13 -0.77
14 -0.7
15 -0.77
16 -0.77
17 -0.7
18 -0.47
19 -0.66
2 1.51
20 -0.85
21 0.28
22 0.28
23 0.28
24 0.58
25 0.28
26 -0.04
27 0.84
28 -0.14
29 0.49
3 1.51
36 0.4
37 0.4
38 0.15
39 0.15
4 -0.56
40 0.5
41 0.4
42 0.4
43 0.5
44 0.5
45 0.5
5 -0.68
6 -0.68
7 -0.55
8 -0.57
9 -0.54

> <PUBCHEM_EFFECTIVE_ROTOR_COUNT>
9

> <PUBCHEM_PHARMACOPHORE_FEATURES>
18
1 10 acceptor
1 11 acceptor
1 13 acceptor
1 14 acceptor
1 15 acceptor
1 16 acceptor
1 17 acceptor
1 19 donor
1 20 donor
1 4 acceptor
1 5 acceptor
1 5 donor
1 6 acceptor
1 6 donor
1 8 acceptor
4 3 15 16 17 anion
5 4 21 22 23 24 rings
6 18 19 26 27 28 29 rings

> <PUBCHEM_HEAVY_ATOM_COUNT>
29

> <PUBCHEM_ATOM_DEF_STEREO_COUNT>
0

> <PUBCHEM_ATOM_UDEF_STEREO_COUNT>
4

> <PUBCHEM_BOND_DEF_STEREO_COUNT>
0

> <PUBCHEM_BOND_UDEF_STEREO_COUNT>
0

> <PUBCHEM_ISOTOPIC_ATOM_COUNT>
0

> <PUBCHEM_COMPONENT_COUNT>
1

> <PUBCHEM_CACTVS_TAUTO_COUNT>
3

> <PUBCHEM_CONFORMER_ID>
0000025100000021

> <PUBCHEM_MMFF94_ENERGY>
-3.6917

> <PUBCHEM_FEATURE_SELFOVERLAP>
91.465

> <PUBCHEM_SHAPE_FINGERPRINT>
10366900 7 18342168977758691967
10577160 103 18118136985999803716
10794284 68 14762971704621852360
10928967 22 18202277022198019271
11488393 25 17915738885226364936
12363563 72 17418085473850208668
12788726 201 17843127995746087624
13103583 49 15697735760395551990
14251757 5 18334299760111228447
14932701 244 15793164646750258203
14950920 106 14548730746545921519
1813 80 16128390272025264724
20603629 256 16271630295709983488
20693207 138 18341883113146049597
21591331 117 18057629683225688363
23559900 14 18337946899988636061
3117164 225 10951506838284922476
312425 83 17532653421538620926
484985 159 17131561522654217511
5283178 26 17987534756399077399
574716 61 16588019100071431103

> <PUBCHEM_SHAPE_MULTIPOLES>
511.24
11.68
3.56
2.85
3.34
1.22
-0.57
5.8
8.27
-4.01
-1.19
1.7
-1.01
2.48

> <PUBCHEM_SHAPE_SELFOVERLAP>
1013.953

> <PUBCHEM_SHAPE_VOLUME>
305.2

> <PUBCHEM_COORDINATE_TYPE>
2
5
10

$$$$
