76030732
  -OEChem-08152607142D

 23 20  0     0  0  0  0  0  0999 V2000
    3.3968    0.2939    0.0000 V   0  0  0  0  0  0  0  0  0  0  0  0
    2.5878    0.8817    0.0000 Cl  0  5  0  0  0  0  0  0  0  0  0  0
    4.2058   -0.2939    0.0000 Cl  0  5  0  0  0  0  0  0  0  0  0  0
    2.8090   -0.5151    0.0000 C   0  5  0  0  0  0  0  0  0  0  0  0
    3.9846    1.1029    0.0000 C   0  5  0  0  0  0  0  0  0  0  0  0
    2.0000   -1.1029    0.0000 C   0  0  0  0  0  0  0  0  0  0  0  0
    3.6180   -1.1029    0.0000 C   0  0  0  0  0  0  0  0  0  0  0  0
    4.7936    0.5151    0.0000 C   0  0  0  0  0  0  0  0  0  0  0  0
    4.2936    2.0540    0.0000 C   0  0  0  0  0  0  0  0  0  0  0  0
    2.3090   -2.0540    0.0000 C   0  0  0  0  0  0  0  0  0  0  0  0
    3.3090   -2.0540    0.0000 C   0  0  0  0  0  0  0  0  0  0  0  0
    5.6026    1.1029    0.0000 C   0  0  0  0  0  0  0  0  0  0  0  0
    5.2936    2.0540    0.0000 C   0  0  0  0  0  0  0  0  0  0  0  0
    2.4446   -0.0135    0.0000 H   0  0  0  0  0  0  0  0  0  0  0  0
    3.0335    1.4119    0.0000 H   0  0  0  0  0  0  0  0  0  0  0  0
    1.4103   -0.9113    0.0000 H   0  0  0  0  0  0  0  0  0  0  0  0
    4.2077   -0.9113    0.0000 H   0  0  0  0  0  0  0  0  0  0  0  0
    4.7936   -0.1049    0.0000 H   0  0  0  0  0  0  0  0  0  0  0  0
    3.9292    2.5556    0.0000 H   0  0  0  0  0  0  0  0  0  0  0  0
    1.9446   -2.5556    0.0000 H   0  0  0  0  0  0  0  0  0  0  0  0
    3.6734   -2.5556    0.0000 H   0  0  0  0  0  0  0  0  0  0  0  0
    6.1923    0.9113    0.0000 H   0  0  0  0  0  0  0  0  0  0  0  0
    5.6580    2.5556    0.0000 H   0  0  0  0  0  0  0  0  0  0  0  0
  4  6  1  0  0  0  0
  4  7  1  0  0  0  0
  4 14  1  0  0  0  0
  5  8  1  0  0  0  0
  5  9  1  0  0  0  0
  5 15  1  0  0  0  0
  6 10  2  0  0  0  0
  6 16  1  0  0  0  0
  7 11  2  0  0  0  0
  7 17  1  0  0  0  0
  8 12  2  0  0  0  0
  8 18  1  0  0  0  0
  9 13  2  0  0  0  0
  9 19  1  0  0  0  0
 10 11  1  0  0  0  0
 10 20  1  0  0  0  0
 11 21  1  0  0  0  0
 12 13  1  0  0  0  0
 12 22  1  0  0  0  0
 13 23  1  0  0  0  0
M  CHG  5   1   4   2  -1   3  -1   4  -1   5  -1
M  END
> <PUBCHEM_COMPOUND_CID>
76030732

> <PUBCHEM_COMPOUND_CANONICALIZED>
1

> <PUBCHEM_CACTVS_COMPLEXITY>
11.6

> <PUBCHEM_CACTVS_HBOND_ACCEPTOR>
4

> <PUBCHEM_CACTVS_HBOND_DONOR>
0

> <PUBCHEM_CACTVS_ROTATABLE_BOND>
0

> <PUBCHEM_CACTVS_SUBSKEYS>
AAADccBwAAAGAAEAAAAAAAAAAAAAAYMAAAAAAAAAAAAAAAABQAAAGAAAAAAACACAEAAwAIAAAACAACBCAAACAAAgAAAIiAAAAIgIICKAERCAIAAggAAIiAYAAAAAAAAAAAAAAAAAAAAAAAAAAAAAAAAAAA==

> <PUBCHEM_IUPAC_OPENEYE_NAME>
bis(cyclopenta-1,3-diene);vanadium(4+);dichloride

> <PUBCHEM_IUPAC_CAS_NAME>
bis(cyclopenta-1,3-diene);vanadium(4+);dichloride

> <PUBCHEM_IUPAC_NAME_MARKUP>
bis(cyclopenta-1,3-diene);vanadium(4+);dichloride

> <PUBCHEM_IUPAC_NAME>
bis(cyclopenta-1,3-diene);vanadium(4+);dichloride

> <PUBCHEM_IUPAC_SYSTEMATIC_NAME>
bis(cyclopenta-1,3-diene);vanadium(4+);dichloride

> <PUBCHEM_IUPAC_TRADITIONAL_NAME>
bis(cyclopenta-1,3-diene);vanadium(4+);dichloride

> <PUBCHEM_IUPAC_INCHI>
InChI=1S/2C5H5.2ClH.V/c2*1-2-4-5-3-1;;;/h2*1-5H;2*1H;/q2*-1;;;+4/p-2

> <PUBCHEM_IUPAC_INCHIKEY>
CFTPQBADCNYKCN-UHFFFAOYSA-L

> <PUBCHEM_EXACT_MASS>
250.959913

> <PUBCHEM_MOLECULAR_FORMULA>
C10H10Cl2V

> <PUBCHEM_MOLECULAR_WEIGHT>
252.03

> <PUBCHEM_SMILES>
[CH-]1C=CC=C1.[CH-]1C=CC=C1.[Cl-].[Cl-].[V+4]

> <PUBCHEM_CONNECTIVITY_SMILES>
[CH-]1C=CC=C1.[CH-]1C=CC=C1.[Cl-].[Cl-].[V+4]

> <PUBCHEM_CACTVS_TPSA>
0

> <PUBCHEM_MONOISOTOPIC_WEIGHT>
250.959913

> <PUBCHEM_TOTAL_CHARGE>
0

> <PUBCHEM_HEAVY_ATOM_COUNT>
13

> <PUBCHEM_ATOM_DEF_STEREO_COUNT>
0

> <PUBCHEM_ATOM_UDEF_STEREO_COUNT>
0

> <PUBCHEM_BOND_DEF_STEREO_COUNT>
0

> <PUBCHEM_BOND_UDEF_STEREO_COUNT>
0

> <PUBCHEM_ISOTOPIC_ATOM_COUNT>
0

> <PUBCHEM_COMPONENT_COUNT>
5

> <PUBCHEM_CACTVS_TAUTO_COUNT>
-1

> <PUBCHEM_COORDINATE_TYPE>
1
5
255

> <PUBCHEM_BONDANNOTATIONS>
10  11  8
12  13  8
4  6  8
4  7  8
5  8  8
5  9  8
6  10  8
7  11  8
8  12  8
9  13  8

$$$$
