101667988
  -OEChem-08152604412D

 15 12  0     0  0  0  0  0  0999 V2000
    0.0000    1.9900    0.0000 Zn  0  0  0  0  0  0  0  0  0  0  0  0
    3.1200    0.6200    0.0000 C   0  0  0  0  0  0  0  0  0  0  0  0
    3.1200    3.8600    0.0000 C   0  0  0  0  0  0  0  0  0  0  0  0
    4.1200    0.6200    0.0000 C   0  4  0  0  0  0  0  0  0  0  0  0
    4.1200    3.8600    0.0000 C   0  4  0  0  0  0  0  0  0  0  0  0
    3.1200    1.2400    0.0000 H   0  0  0  0  0  0  0  0  0  0  0  0
    2.5000    0.6200    0.0000 H   0  0  0  0  0  0  0  0  0  0  0  0
    3.1200    0.0000    0.0000 H   0  0  0  0  0  0  0  0  0  0  0  0
    3.1200    4.4800    0.0000 H   0  0  0  0  0  0  0  0  0  0  0  0
    2.5000    3.8600    0.0000 H   0  0  0  0  0  0  0  0  0  0  0  0
    3.1200    3.2400    0.0000 H   0  0  0  0  0  0  0  0  0  0  0  0
    4.4300    0.0831    0.0000 H   0  0  0  0  0  0  0  0  0  0  0  0
    4.4300    1.1569    0.0000 H   0  0  0  0  0  0  0  0  0  0  0  0
    4.4300    3.3231    0.0000 H   0  0  0  0  0  0  0  0  0  0  0  0
    4.4300    4.3969    0.0000 H   0  0  0  0  0  0  0  0  0  0  0  0
  2  4  1  0  0  0  0
  2  6  1  0  0  0  0
  2  7  1  0  0  0  0
  2  8  1  0  0  0  0
  3  5  1  0  0  0  0
  3  9  1  0  0  0  0
  3 10  1  0  0  0  0
  3 11  1  0  0  0  0
  4 12  1  0  0  0  0
  4 13  1  0  0  0  0
  5 14  1  0  0  0  0
  5 15  1  0  0  0  0
M  RAD  2   4   2   5   2
M  END
> <PUBCHEM_COMPOUND_CID>
101667988

> <PUBCHEM_COMPOUND_CANONICALIZED>
1

> <PUBCHEM_CACTVS_COMPLEXITY>
0

> <PUBCHEM_CACTVS_HBOND_ACCEPTOR>
0

> <PUBCHEM_CACTVS_HBOND_DONOR>
0

> <PUBCHEM_CACTVS_ROTATABLE_BOND>
0

> <PUBCHEM_CACTVS_SUBSKEYS>
AAADccBgAAAAAAACAAAAAAAAAAAAAAAAAAAAAAAAAAAAAAAAAAAAGAAAAAAAAACAAAACAAAAAAAAAAAAAAAAAAAAAAAAAAAAAAAAAAAAAAAAAAAAAAAAAAAAAAAAAAAAAAAAAAAAAAAAAAAAAAAAAAAAAA==

> <PUBCHEM_IUPAC_INCHI>
InChI=1S/2C2H5.Zn/c2*1-2;/h2*1H2,2H3;

> <PUBCHEM_IUPAC_INCHIKEY>
HQWPLXHWEZZGKY-UHFFFAOYSA-N

> <PUBCHEM_EXACT_MASS>
122.007392

> <PUBCHEM_MOLECULAR_FORMULA>
C4H10Zn

> <PUBCHEM_MOLECULAR_WEIGHT>
123.5

> <PUBCHEM_SMILES>
C[CH2].C[CH2].[Zn]

> <PUBCHEM_CONNECTIVITY_SMILES>
C[CH2].C[CH2].[Zn]

> <PUBCHEM_CACTVS_TPSA>
0

> <PUBCHEM_MONOISOTOPIC_WEIGHT>
122.007392

> <PUBCHEM_TOTAL_CHARGE>
0

> <PUBCHEM_HEAVY_ATOM_COUNT>
5

> <PUBCHEM_ATOM_DEF_STEREO_COUNT>
0

> <PUBCHEM_ATOM_UDEF_STEREO_COUNT>
0

> <PUBCHEM_BOND_DEF_STEREO_COUNT>
0

> <PUBCHEM_BOND_UDEF_STEREO_COUNT>
0

> <PUBCHEM_ISOTOPIC_ATOM_COUNT>
0

> <PUBCHEM_COMPONENT_COUNT>
3

> <PUBCHEM_CACTVS_TAUTO_COUNT>
-1

> <PUBCHEM_COORDINATE_TYPE>
1
5
255

$$$$
