139651
  -OEChem-08152605522D

  5  4  0     0  0  0  0  0  0999 V2000
    2.8660    0.0000    0.0000 Ge  0  0  0  0  0  0  0  0  0  0  0  0
    3.7320    0.5000    0.0000 F   0  0  0  0  0  0  0  0  0  0  0  0
    2.0000   -0.5000    0.0000 F   0  0  0  0  0  0  0  0  0  0  0  0
    2.5560    0.5369    0.0000 H   0  0  0  0  0  0  0  0  0  0  0  0
    3.1760   -0.5369    0.0000 H   0  0  0  0  0  0  0  0  0  0  0  0
  1  2  1  0  0  0  0
  1  3  1  0  0  0  0
  1  4  1  0  0  0  0
  1  5  1  0  0  0  0
M  END
> <PUBCHEM_COMPOUND_CID>
139651

> <PUBCHEM_COMPOUND_CANONICALIZED>
1

> <PUBCHEM_CACTVS_COMPLEXITY>
2.8

> <PUBCHEM_CACTVS_HBOND_ACCEPTOR>
2

> <PUBCHEM_CACTVS_HBOND_DONOR>
0

> <PUBCHEM_CACTVS_ROTATABLE_BOND>
0

> <PUBCHEM_CACTVS_SUBSKEYS>
AAADcQAAAYAAAAAAgAAAAAAAAAAAAAAAAAAAAAAAAAAAAAAAAAAAAAAAAAAAAAAAAAAAAAAAAAAAAAAAAAAAAAAAAAAAAAAAAAAAAAAAAAAAAAAAAAAAAAAAAAAAAAAAAAAAAAAAAAAAAAAAAAAAAAAAAA==

> <PUBCHEM_IUPAC_OPENEYE_NAME>
difluorogermane

> <PUBCHEM_IUPAC_CAS_NAME>
difluorogermane

> <PUBCHEM_IUPAC_NAME_MARKUP>
difluorogermane

> <PUBCHEM_IUPAC_NAME>
difluorogermane

> <PUBCHEM_IUPAC_SYSTEMATIC_NAME>
bis(fluoranyl)germane

> <PUBCHEM_IUPAC_TRADITIONAL_NAME>
difluorogermane

> <PUBCHEM_IUPAC_INCHI>
InChI=1S/F2GeH2/c1-3-2/h3H2

> <PUBCHEM_IUPAC_INCHIKEY>
RMORSIGFWJDPMT-UHFFFAOYSA-N

> <PUBCHEM_EXACT_MASS>
113.9336341

> <PUBCHEM_MOLECULAR_FORMULA>
F2GeH2

> <PUBCHEM_MOLECULAR_WEIGHT>
112.64

> <PUBCHEM_SMILES>
F[GeH2]F

> <PUBCHEM_CONNECTIVITY_SMILES>
F[GeH2]F

> <PUBCHEM_CACTVS_TPSA>
0

> <PUBCHEM_MONOISOTOPIC_WEIGHT>
113.9336341

> <PUBCHEM_TOTAL_CHARGE>
0

> <PUBCHEM_HEAVY_ATOM_COUNT>
3

> <PUBCHEM_ATOM_DEF_STEREO_COUNT>
0

> <PUBCHEM_ATOM_UDEF_STEREO_COUNT>
0

> <PUBCHEM_BOND_DEF_STEREO_COUNT>
0

> <PUBCHEM_BOND_UDEF_STEREO_COUNT>
0

> <PUBCHEM_ISOTOPIC_ATOM_COUNT>
0

> <PUBCHEM_COMPONENT_COUNT>
1

> <PUBCHEM_CACTVS_TAUTO_COUNT>
-1

> <PUBCHEM_COORDINATE_TYPE>
1
5
255

$$$$
