421
  -OEChem-08152602453D

 28 27  0     1  0  0  0  0  0999 V2000
   -2.1108   -2.5478   -0.5228 S   0  0  0  0  0  0  0  0  0  0  0  0
   -5.4133    1.7997   -0.0997 S   0  0  0  0  0  0  0  0  0  0  0  0
    5.2459   -0.1468    0.3233 O   0  0  0  0  0  0  0  0  0  0  0  0
    4.0173    1.4613   -0.7055 O   0  0  0  0  0  0  0  0  0  0  0  0
   -0.9714   -0.0550   -0.0717 C   0  0  0  0  0  0  0  0  0  0  0  0
   -2.2367   -0.8802    0.2289 C   0  0  1  0  0  0  0  0  0  0  0  0
    0.3579   -0.6993    0.3443 C   0  0  0  0  0  0  0  0  0  0  0  0
    1.5446    0.1875   -0.0526 C   0  0  0  0  0  0  0  0  0  0  0  0
   -3.5658   -0.2442   -0.2185 C   0  0  0  0  0  0  0  0  0  0  0  0
    2.8864   -0.4024    0.3829 C   0  0  0  0  0  0  0  0  0  0  0  0
   -3.8279    1.1046    0.4535 C   0  0  0  0  0  0  0  0  0  0  0  0
    4.0738    0.4226   -0.0622 C   0  0  0  0  0  0  0  0  0  0  0  0
   -1.0457    0.9102    0.4434 H   0  0  0  0  0  0  0  0  0  0  0  0
   -0.9400    0.1745   -1.1452 H   0  0  0  0  0  0  0  0  0  0  0  0
   -2.2841   -1.0433    1.3125 H   0  0  0  0  0  0  0  0  0  0  0  0
    0.4936   -1.6758   -0.1308 H   0  0  0  0  0  0  0  0  0  0  0  0
    0.3611   -0.8603    1.4289 H   0  0  0  0  0  0  0  0  0  0  0  0
    1.4268    1.1835    0.3923 H   0  0  0  0  0  0  0  0  0  0  0  0
    1.5445    0.3304   -1.1406 H   0  0  0  0  0  0  0  0  0  0  0  0
   -3.5569   -0.1104   -1.3088 H   0  0  0  0  0  0  0  0  0  0  0  0
   -4.3936   -0.9261    0.0199 H   0  0  0  0  0  0  0  0  0  0  0  0
    2.9993   -1.4058   -0.0431 H   0  0  0  0  0  0  0  0  0  0  0  0
    2.9163   -0.4774    1.4757 H   0  0  0  0  0  0  0  0  0  0  0  0
   -3.8548    0.9948    1.5421 H   0  0  0  0  0  0  0  0  0  0  0  0
   -3.0511    1.8314    0.2018 H   0  0  0  0  0  0  0  0  0  0  0  0
   -2.0449   -2.1386   -1.7984 H   0  0  0  0  0  0  0  0  0  0  0  0
   -5.3513    2.9210    0.6334 H   0  0  0  0  0  0  0  0  0  0  0  0
    6.0209    0.3777    0.0291 H   0  0  0  0  0  0  0  0  0  0  0  0
  1  6  1  0  0  0  0
  1 26  1  0  0  0  0
  2 11  1  0  0  0  0
  2 27  1  0  0  0  0
  3 12  1  0  0  0  0
  3 28  1  0  0  0  0
  4 12  2  0  0  0  0
  5  6  1  0  0  0  0
  5  7  1  0  0  0  0
  5 13  1  0  0  0  0
  5 14  1  0  0  0  0
  6  9  1  0  0  0  0
  6 15  1  0  0  0  0
  7  8  1  0  0  0  0
  7 16  1  0  0  0  0
  7 17  1  0  0  0  0
  8 10  1  0  0  0  0
  8 18  1  0  0  0  0
  8 19  1  0  0  0  0
  9 11  1  0  0  0  0
  9 20  1  0  0  0  0
  9 21  1  0  0  0  0
 10 12  1  0  0  0  0
 10 22  1  0  0  0  0
 10 23  1  0  0  0  0
 11 24  1  0  0  0  0
 11 25  1  0  0  0  0
M  END
> <PUBCHEM_COMPOUND_CID>
421

> <PUBCHEM_CONFORMER_RMSD>
0.8

> <PUBCHEM_CONFORMER_DIVERSEORDER>
75
88
115
100
102
47
123
45
1
6
120
13
28
38
109
19
10
113
117
17
29
27
8
114
34
107
25
122
89
118
55
64
12
121
81
93
60
44
92
73
15
76
49
11
83
91
97
35
95
71
85
108
62
23
84
21
103
111
116
42
22
94
101
31
106
36
39
54
33
43
4
57
9
48
104
66
105
80
74
51
69
5
56
90
63
67
70
53
87
96
30
32
79
59
2
72
40
86
78
112
99
20
26
41
82
119
61
37
16
3
68
46
14
7
24
110
58
18
52
77
98
65
50

> <PUBCHEM_MMFF94_PARTIAL_CHARGES>
11
1 -0.41
10 0.06
11 0.23
12 0.66
2 -0.41
26 0.18
27 0.18
28 0.5
3 -0.65
4 -0.57
6 0.23

> <PUBCHEM_EFFECTIVE_ROTOR_COUNT>
7

> <PUBCHEM_PHARMACOPHORE_FEATURES>
4
1 3 acceptor
1 4 acceptor
3 3 4 12 anion
4 5 7 8 10 hydrophobe

> <PUBCHEM_HEAVY_ATOM_COUNT>
12

> <PUBCHEM_ATOM_DEF_STEREO_COUNT>
0

> <PUBCHEM_ATOM_UDEF_STEREO_COUNT>
1

> <PUBCHEM_BOND_DEF_STEREO_COUNT>
0

> <PUBCHEM_BOND_UDEF_STEREO_COUNT>
0

> <PUBCHEM_ISOTOPIC_ATOM_COUNT>
0

> <PUBCHEM_COMPONENT_COUNT>
1

> <PUBCHEM_CACTVS_TAUTO_COUNT>
1

> <PUBCHEM_CONFORMER_ID>
000001A50000004B

> <PUBCHEM_MMFF94_ENERGY>
12.9298

> <PUBCHEM_FEATURE_SELFOVERLAP>
20.356

> <PUBCHEM_SHAPE_FINGERPRINT>
10014705 185 18411418431936351193
100836 57 18411422778628072529
12500047 106 18272929444606909839
14123255 352 18335700499571275605
14123255 52 18409166572077493859
14251718 22 10159692500085798042
14445660 50 18187365449659294619
15242439 84 17775284967369157648
15501527 16 18412547608982479049
167882 2 18057327180501125087
17539 30 17914601994577482487
17834072 32 18411984667571668789
17834072 8 18271814475755475478
17834076 25 18413388722081219617
18186145 218 16660918985015699362
187816 3 17346877828396993977
200 152 10663816369502374017
20279233 1 16415484874029212886
20621476 66 18335145297638570940
20645477 56 18413392034002028273
20645477 70 16271939164241121198
20724930 69 18411419488519268675
20767249 213 18261392222632672781
20871999 31 18201147845673662903
212847 35 18409729556406809248
21426921 1 18269272525279341135
22485316 2 18343299301671558026
23402539 116 18201711852046516797
23402655 69 18336266825310611972
23559900 14 18059580157409726942
293599 30 18411982421472396201
366044 4 18412824656169660763
5104073 3 18040712627923568600
573450 72 18337661001401358474
633830 44 17894914066070815386
6430166 295 18411417301985354009

> <PUBCHEM_SHAPE_MULTIPOLES>
242.91
11.69
1.97
0.73
4.85
0.94
0.02
-6.95
0.29
-2.47
0.37
0
0
-0.57

> <PUBCHEM_SHAPE_SELFOVERLAP>
426.339

> <PUBCHEM_SHAPE_VOLUME>
161.2

> <PUBCHEM_COORDINATE_TYPE>
2
5
10

$$$$
