1056
  -OEChem-08152603393D

 12 12  0     0  0  0  0  0  0999 V2000
    0.5868    1.2532    0.0002 N   0  0  0  0  0  0  0  0  0  0  0  0
   -1.4320   -0.2312    0.0001 N   0  0  0  0  0  0  0  0  0  0  0  0
   -0.8577    1.1317   -0.0002 C   0  0  0  0  0  0  0  0  0  0  0  0
    1.3811    0.1453   -0.0001 C   0  0  0  0  0  0  0  0  0  0  0  0
    0.9002   -1.0999    0.0000 C   0  0  0  0  0  0  0  0  0  0  0  0
   -0.5785   -1.1990    0.0000 C   0  0  0  0  0  0  0  0  0  0  0  0
   -1.2464    1.6570   -0.8795 H   0  0  0  0  0  0  0  0  0  0  0  0
   -1.2468    1.6575    0.8787 H   0  0  0  0  0  0  0  0  0  0  0  0
    1.0252    2.1670   -0.0002 H   0  0  0  0  0  0  0  0  0  0  0  0
    2.4425    0.3585   -0.0001 H   0  0  0  0  0  0  0  0  0  0  0  0
    1.5122   -1.9899    0.0000 H   0  0  0  0  0  0  0  0  0  0  0  0
   -0.9640   -2.2319    0.0001 H   0  0  0  0  0  0  0  0  0  0  0  0
  1  3  1  0  0  0  0
  1  4  1  0  0  0  0
  1  9  1  0  0  0  0
  2  3  1  0  0  0  0
  2  6  2  0  0  0  0
  3  7  1  0  0  0  0
  3  8  1  0  0  0  0
  4  5  2  0  0  0  0
  4 10  1  0  0  0  0
  5  6  1  0  0  0  0
  5 11  1  0  0  0  0
  6 12  1  0  0  0  0
M  END
> <PUBCHEM_COMPOUND_CID>
1056

> <PUBCHEM_CONFORMER_RMSD>
0.4

> <PUBCHEM_CONFORMER_DIVERSEORDER>
1

> <PUBCHEM_MMFF94_PARTIAL_CHARGES>
10
1 -0.87
10 0.15
11 0.15
12 0.06
2 -0.7
3 0.62
4 -0.05
5 -0.14
6 0.38
9 0.4

> <PUBCHEM_EFFECTIVE_ROTOR_COUNT>
0.4

> <PUBCHEM_PHARMACOPHORE_FEATURES>
4
1 1 cation
1 1 donor
1 2 acceptor
6 1 2 3 4 5 6 rings

> <PUBCHEM_HEAVY_ATOM_COUNT>
6

> <PUBCHEM_ATOM_DEF_STEREO_COUNT>
0

> <PUBCHEM_ATOM_UDEF_STEREO_COUNT>
0

> <PUBCHEM_BOND_DEF_STEREO_COUNT>
0

> <PUBCHEM_BOND_UDEF_STEREO_COUNT>
0

> <PUBCHEM_ISOTOPIC_ATOM_COUNT>
0

> <PUBCHEM_COMPONENT_COUNT>
1

> <PUBCHEM_CACTVS_TAUTO_COUNT>
1

> <PUBCHEM_CONFORMER_ID>
0000042000000001

> <PUBCHEM_MMFF94_ENERGY>
13.5445

> <PUBCHEM_FEATURE_SELFOVERLAP>
20.297

> <PUBCHEM_SHAPE_FINGERPRINT>
16714656 1 18339373993356812334
20096714 4 18267025144358775186
21015797 1 9295291637935975302
21040471 1 17906170655134905412

> <PUBCHEM_SHAPE_MULTIPOLES>
113.52
1.62
1.5
0.59
0.02
0.02
0
-0.05
0
0.05
0
-0.02
0.01
0

> <PUBCHEM_SHAPE_SELFOVERLAP>
222.838

> <PUBCHEM_SHAPE_VOLUME>
65.2

> <PUBCHEM_COORDINATE_TYPE>
2
5
10

$$$$
