23422578
  -OEChem-08152607332D

  7  6  0     0  0  0  0  0  0999 V2000
    2.5369   -0.0000    0.0000 Xe  0  0  0  0  0  0  0  0  0  0  0  0
    2.5369    1.0000    0.0000 O   0  0  0  0  0  0  0  0  0  0  0  0
    2.5369   -1.0000    0.0000 O   0  0  0  0  0  0  0  0  0  0  0  0
    3.4030   -0.5000    0.0000 O   0  0  0  0  0  0  0  0  0  0  0  0
    3.4030    0.5000    0.0000 O   0  0  0  0  0  0  0  0  0  0  0  0
    2.0000    1.3100    0.0000 H   0  0  0  0  0  0  0  0  0  0  0  0
    2.0000   -1.3100    0.0000 H   0  0  0  0  0  0  0  0  0  0  0  0
  1  2  1  0  0  0  0
  1  3  1  0  0  0  0
  1  4  2  0  0  0  0
  1  5  2  0  0  0  0
  2  6  1  0  0  0  0
  3  7  1  0  0  0  0
M  END
> <PUBCHEM_COMPOUND_CID>
23422578

> <PUBCHEM_COMPOUND_CANONICALIZED>
1

> <PUBCHEM_CACTVS_COMPLEXITY>
81.3

> <PUBCHEM_CACTVS_HBOND_ACCEPTOR>
4

> <PUBCHEM_CACTVS_HBOND_DONOR>
2

> <PUBCHEM_CACTVS_ROTATABLE_BOND>
0

> <PUBCHEM_CACTVS_SUBSKEYS>
AAADcQAAOAAAAAAAAAAQAAAAAAAAAAAAAAAAAAAAAAAAAAAAAAAAAAAACAAAAAAAAAAAAAAAAAAAAAAAAAAAAAAAAAAAAAAAAAAAAAAAAAAAAAAAAAAAAAAAAAAAAAAAAAAAAAAAAAAAAAAAAAAAAAAAAA==

> <PUBCHEM_IUPAC_OPENEYE_NAME>
dihydroxy(dioxo)xenon

> <PUBCHEM_IUPAC_CAS_NAME>
dihydroxy(dioxo)xenon

> <PUBCHEM_IUPAC_NAME_MARKUP>
dihydroxy(dioxo)xenon

> <PUBCHEM_IUPAC_NAME>
dihydroxy(dioxo)xenon

> <PUBCHEM_IUPAC_SYSTEMATIC_NAME>
bis(oxidanyl)-bis(oxidanylidene)xenon

> <PUBCHEM_IUPAC_TRADITIONAL_NAME>
dihydroxy(diketo)xenon

> <PUBCHEM_IUPAC_INCHI>
InChI=1S/H2O4Xe/c1-5(2,3)4/h1-2H

> <PUBCHEM_IUPAC_INCHIKEY>
HRLLZBGOCZURJC-UHFFFAOYSA-N

> <PUBCHEM_EXACT_MASS>
197.89946362

> <PUBCHEM_MOLECULAR_FORMULA>
H2O4Xe

> <PUBCHEM_MOLECULAR_WEIGHT>
197.31

> <PUBCHEM_SMILES>
O[Xe](=O)(=O)O

> <PUBCHEM_CONNECTIVITY_SMILES>
O[Xe](=O)(=O)O

> <PUBCHEM_CACTVS_TPSA>
74.6

> <PUBCHEM_MONOISOTOPIC_WEIGHT>
197.89946362

> <PUBCHEM_TOTAL_CHARGE>
0

> <PUBCHEM_HEAVY_ATOM_COUNT>
5

> <PUBCHEM_ATOM_DEF_STEREO_COUNT>
0

> <PUBCHEM_ATOM_UDEF_STEREO_COUNT>
0

> <PUBCHEM_BOND_DEF_STEREO_COUNT>
0

> <PUBCHEM_BOND_UDEF_STEREO_COUNT>
0

> <PUBCHEM_ISOTOPIC_ATOM_COUNT>
0

> <PUBCHEM_COMPONENT_COUNT>
1

> <PUBCHEM_CACTVS_TAUTO_COUNT>
-1

> <PUBCHEM_COORDINATE_TYPE>
1
5
255

$$$$
