139283
  -OEChem-08152605103D

  6  5  0     0  0  0  0  0  0999 V2000
    1.1390    0.0000    0.0000 P   0  0  0  0  0  0  0  0  0  0  0  0
   -1.1390    0.0000    0.0000 P   0  0  0  0  0  0  0  0  0  0  0  0
    1.3408    0.5277   -1.2973 H   0  0  0  0  0  0  0  0  0  0  0  0
    1.3403    1.2293    0.6712 H   0  0  0  0  0  0  0  0  0  0  0  0
   -1.3403    1.3870   -0.1948 H   0  0  0  0  0  0  0  0  0  0  0  0
   -1.3408    0.0364    1.4000 H   0  0  0  0  0  0  0  0  0  0  0  0
  1  2  1  0  0  0  0
  1  3  1  0  0  0  0
  1  4  1  0  0  0  0
  2  5  1  0  0  0  0
  2  6  1  0  0  0  0
M  END
> <PUBCHEM_COMPOUND_CID>
139283

> <PUBCHEM_CONFORMER_RMSD>
0.4

> <PUBCHEM_CONFORMER_DIVERSEORDER>
1

> <PUBCHEM_MMFF94_PARTIAL_CHARGES>
6
1 -0.19
2 -0.19
3 0.1
4 0.1
5 0.1
6 0.1

> <PUBCHEM_EFFECTIVE_ROTOR_COUNT>
0

> <PUBCHEM_PHARMACOPHORE_FEATURES>
0

> <PUBCHEM_HEAVY_ATOM_COUNT>
2

> <PUBCHEM_ATOM_DEF_STEREO_COUNT>
0

> <PUBCHEM_ATOM_UDEF_STEREO_COUNT>
0

> <PUBCHEM_BOND_DEF_STEREO_COUNT>
0

> <PUBCHEM_BOND_UDEF_STEREO_COUNT>
0

> <PUBCHEM_ISOTOPIC_ATOM_COUNT>
0

> <PUBCHEM_COMPONENT_COUNT>
1

> <PUBCHEM_CACTVS_TAUTO_COUNT>
1

> <PUBCHEM_CONFORMER_ID>
0002201300000001

> <PUBCHEM_MMFF94_ENERGY>
0.3629

> <PUBCHEM_FEATURE_SELFOVERLAP>
0

> <PUBCHEM_SHAPE_FINGERPRINT>
139733 1 18410856559639802566

> <PUBCHEM_SHAPE_MULTIPOLES>
48.86
1.99
0.69
0.69
0
0
0
0
0
0
0
0
0
0

> <PUBCHEM_SHAPE_SELFOVERLAP>
53.771

> <PUBCHEM_SHAPE_VOLUME>
45.3

> <PUBCHEM_COORDINATE_TYPE>
2
5
10

$$$$
