82243
  -OEChem-08152604582D

  4  3  0     0  0  0  0  0  0999 V2000
    2.0000    0.2500    0.0000 Br  0  0  0  0  0  0  0  0  0  0  0  0
    4.5981   -0.2500    0.0000 Br  0  0  0  0  0  0  0  0  0  0  0  0
    2.8660   -0.2500    0.0000 Se  0  0  0  0  0  0  0  0  0  0  0  0
    3.7321    0.2500    0.0000 Se  0  0  0  0  0  0  0  0  0  0  0  0
  1  3  1  0  0  0  0
  2  4  1  0  0  0  0
  3  4  1  0  0  0  0
M  END
> <PUBCHEM_COMPOUND_CID>
82243

> <PUBCHEM_COMPOUND_CANONICALIZED>
1

> <PUBCHEM_CACTVS_COMPLEXITY>
6

> <PUBCHEM_CACTVS_HBOND_ACCEPTOR>
0

> <PUBCHEM_CACTVS_HBOND_DONOR>
0

> <PUBCHEM_CACTVS_ROTATABLE_BOND>
0

> <PUBCHEM_CACTVS_SUBSKEYS>
AAADcQAAAAAAGAAAIAAAAAAAAAAAAAAAAAAAAAAAAAAAAAAAAAAAAAAAAAAAAAAAAAAAAAAAAAAAAAAAAAAAAAAAAAAAAAAAAAAAAAAAAAAAAAAAAAAAAAAAAAAAAAAAAAAAAAAAAAAAAAAAAAAAAAAAAA==

> <PUBCHEM_IUPAC_OPENEYE_NAME>
bromoselanyl selenohypobromite

> <PUBCHEM_IUPAC_CAS_NAME>
selenohypobromous acid (bromoseleno) ester

> <PUBCHEM_IUPAC_NAME_MARKUP>
bromoselanyl selenohypobromite

> <PUBCHEM_IUPAC_NAME>
bromoselanyl selenohypobromite

> <PUBCHEM_IUPAC_SYSTEMATIC_NAME>
bromanylselanyl selenohypobromite

> <PUBCHEM_IUPAC_TRADITIONAL_NAME>
selenohypobromous acid (bromoseleno) ester

> <PUBCHEM_IUPAC_INCHI>
InChI=1S/Br2Se2/c1-3-4-2

> <PUBCHEM_IUPAC_INCHIKEY>
XXFBOXZYQLMDQA-UHFFFAOYSA-N

> <PUBCHEM_EXACT_MASS>
319.66767

> <PUBCHEM_MOLECULAR_FORMULA>
Br2Se2

> <PUBCHEM_MOLECULAR_WEIGHT>
317.75

> <PUBCHEM_SMILES>
[Se]([Se]Br)Br

> <PUBCHEM_CONNECTIVITY_SMILES>
[Se]([Se]Br)Br

> <PUBCHEM_CACTVS_TPSA>
0

> <PUBCHEM_MONOISOTOPIC_WEIGHT>
317.66972

> <PUBCHEM_TOTAL_CHARGE>
0

> <PUBCHEM_HEAVY_ATOM_COUNT>
4

> <PUBCHEM_ATOM_DEF_STEREO_COUNT>
0

> <PUBCHEM_ATOM_UDEF_STEREO_COUNT>
0

> <PUBCHEM_BOND_DEF_STEREO_COUNT>
0

> <PUBCHEM_BOND_UDEF_STEREO_COUNT>
0

> <PUBCHEM_ISOTOPIC_ATOM_COUNT>
0

> <PUBCHEM_COMPONENT_COUNT>
1

> <PUBCHEM_CACTVS_TAUTO_COUNT>
-1

> <PUBCHEM_COORDINATE_TYPE>
1
5
255

$$$$
