74123
  -OEChem-08152604323D

  8  7  0     0  0  0  0  0  0999 V2000
   -1.1413    0.0000    0.0000 Si  0  0  0  0  0  0  0  0  0  0  0  0
    1.1413    0.0000    0.0000 Si  0  0  0  0  0  0  0  0  0  0  0  0
   -1.6373   -1.3993    0.0348 H   0  0  0  0  0  0  0  0  0  0  0  0
   -1.6373    0.7297    1.1944 H   0  0  0  0  0  0  0  0  0  0  0  0
   -1.6373    0.6695   -1.2292 H   0  0  0  0  0  0  0  0  0  0  0  0
    1.6373   -0.7298   -1.1944 H   0  0  0  0  0  0  0  0  0  0  0  0
    1.6373   -0.6695    1.2292 H   0  0  0  0  0  0  0  0  0  0  0  0
    1.6373    1.3993   -0.0349 H   0  0  0  0  0  0  0  0  0  0  0  0
  1  2  1  0  0  0  0
  1  3  1  0  0  0  0
  1  4  1  0  0  0  0
  1  5  1  0  0  0  0
  2  6  1  0  0  0  0
  2  7  1  0  0  0  0
  2  8  1  0  0  0  0
M  END
> <PUBCHEM_COMPOUND_CID>
74123

> <PUBCHEM_CONFORMER_RMSD>
0.4

> <PUBCHEM_CONFORMER_DIVERSEORDER>
1

> <PUBCHEM_MMFF94_PARTIAL_CHARGES>
8
1 0.6
2 0.6
3 -0.2
4 -0.2
5 -0.2
6 -0.2
7 -0.2
8 -0.2

> <PUBCHEM_EFFECTIVE_ROTOR_COUNT>
0

> <PUBCHEM_PHARMACOPHORE_FEATURES>
0

> <PUBCHEM_HEAVY_ATOM_COUNT>
2

> <PUBCHEM_ATOM_DEF_STEREO_COUNT>
0

> <PUBCHEM_ATOM_UDEF_STEREO_COUNT>
0

> <PUBCHEM_BOND_DEF_STEREO_COUNT>
0

> <PUBCHEM_BOND_UDEF_STEREO_COUNT>
0

> <PUBCHEM_ISOTOPIC_ATOM_COUNT>
0

> <PUBCHEM_COMPONENT_COUNT>
1

> <PUBCHEM_CACTVS_TAUTO_COUNT>
1

> <PUBCHEM_CONFORMER_ID>
0001218B00000001

> <PUBCHEM_MMFF94_ENERGY>
-0.0403

> <PUBCHEM_FEATURE_SELFOVERLAP>
0

> <PUBCHEM_SHAPE_FINGERPRINT>
139733 1 18410856563934769861
20096714 4 9223227459734424526
21015797 1 18122344854540255271

> <PUBCHEM_SHAPE_MULTIPOLES>
77.58
2.24
0.94
0.94
0
0
0
0
0
0
0
0
0
0

> <PUBCHEM_SHAPE_SELFOVERLAP>
92.62

> <PUBCHEM_SHAPE_VOLUME>
68.4

> <PUBCHEM_COORDINATE_TYPE>
2
5
10

$$$$
