23200960
  -OEChem-08152606562D

  7  0  0     0  0  0  0  0  0999 V2000
    6.2321    2.5000    0.0000 W   0  0  0  0  0  0  0  0  0  0  0  0
    1.7321    3.0000    0.0000 Ag  0  3  0  0  0  0  0  0  0  0  0  0
    0.0000    3.0000    0.0000 Ag  0  3  0  0  0  0  0  0  0  0  0  0
    0.8660    2.5000    0.0000 O   0  6  0  0  0  0  0  0  0  0  0  0
    3.7321    0.0000    0.0000 O   0  6  0  0  0  0  0  0  0  0  0  0
    3.7321    2.5000    0.0000 O   0  6  0  0  0  0  0  0  0  0  0  0
    3.7321    5.0000    0.0000 O   0  6  0  0  0  0  0  0  0  0  0  0
M  CHG  6   2   1   3   1   4  -2   5  -2   6  -2   7  -2
M  END
> <PUBCHEM_COMPOUND_CID>
23200960

> <PUBCHEM_COMPOUND_CANONICALIZED>
1

> <PUBCHEM_CACTVS_COMPLEXITY>
0

> <PUBCHEM_CACTVS_HBOND_ACCEPTOR>
4

> <PUBCHEM_CACTVS_HBOND_DONOR>
0

> <PUBCHEM_CACTVS_ROTATABLE_BOND>
0

> <PUBCHEM_CACTVS_SUBSKEYS>
AAADcQAAOAAAAAAAAAQAQAAAAAAAAAAAAAAAAAAAAAAAAAAAAAAAAAAAAAAAAAAAAAAAAAAAAAAAAAAAAAAAAAAAAAAAAAAAAAAAAAAAAAAAAAAAAAAAAAAAAAAAAAAAAAAAAAAAAAAAAAAAAAAAAAAAAA==

> <PUBCHEM_IUPAC_OPENEYE_NAME>
disilver;tetrakis(oxygen(2-));tungsten

> <PUBCHEM_IUPAC_CAS_NAME>
disilver;tetrakis(oxygen(2-));tungsten

> <PUBCHEM_IUPAC_NAME_MARKUP>
disilver;tetrakis(oxygen(2-));tungsten

> <PUBCHEM_IUPAC_NAME>
disilver;tetrakis(oxygen(2-));tungsten

> <PUBCHEM_IUPAC_SYSTEMATIC_NAME>
disilver;tetrakis(oxygen(2-));tungsten

> <PUBCHEM_IUPAC_TRADITIONAL_NAME>
disilver;tetrakis(oxygen(2-));tungsten

> <PUBCHEM_IUPAC_INCHI>
InChI=1S/2Ag.4O.W/q2*+1;4*-2;

> <PUBCHEM_IUPAC_INCHIKEY>
PPRJWFGXWLCOTI-UHFFFAOYSA-N

> <PUBCHEM_EXACT_MASS>
463.74044

> <PUBCHEM_MOLECULAR_FORMULA>
Ag2O4W-6

> <PUBCHEM_MOLECULAR_WEIGHT>
463.57

> <PUBCHEM_SMILES>
[O-2].[O-2].[O-2].[O-2].[Ag+].[Ag+].[W]

> <PUBCHEM_CONNECTIVITY_SMILES>
[O-2].[O-2].[O-2].[O-2].[Ag+].[Ag+].[W]

> <PUBCHEM_CACTVS_TPSA>
4

> <PUBCHEM_MONOISOTOPIC_WEIGHT>
461.74077

> <PUBCHEM_TOTAL_CHARGE>
-6

> <PUBCHEM_HEAVY_ATOM_COUNT>
7

> <PUBCHEM_ATOM_DEF_STEREO_COUNT>
0

> <PUBCHEM_ATOM_UDEF_STEREO_COUNT>
0

> <PUBCHEM_BOND_DEF_STEREO_COUNT>
0

> <PUBCHEM_BOND_UDEF_STEREO_COUNT>
0

> <PUBCHEM_ISOTOPIC_ATOM_COUNT>
0

> <PUBCHEM_COMPONENT_COUNT>
7

> <PUBCHEM_CACTVS_TAUTO_COUNT>
-1

> <PUBCHEM_COORDINATE_TYPE>
1
5
255

$$$$
