1029
  -OEChem-08152603373D

 25 24  0     1  0  0  0  0  0999 V2000
   -2.4421   -1.7990   -0.0302 O   0  0  0  0  0  0  0  0  0  0  0  0
    2.3647    1.5770   -0.9767 O   0  0  0  0  0  0  0  0  0  0  0  0
    2.2801    1.0599    1.2311 O   0  0  0  0  0  0  0  0  0  0  0  0
    2.7517   -1.5941    0.0742 N   0  0  0  0  0  0  0  0  0  0  0  0
   -3.0691    1.8602    0.1521 N   0  0  0  0  0  0  0  0  0  0  0  0
   -0.7451   -0.1106   -0.3253 C   0  0  0  0  0  0  0  0  0  0  0  0
    0.3618   -1.0708    0.1255 C   0  0  0  0  0  0  0  0  0  0  0  0
   -2.1193   -0.4409    0.2747 C   0  0  1  0  0  0  0  0  0  0  0  0
    1.7404   -0.6584   -0.4117 C   0  0  1  0  0  0  0  0  0  0  0  0
   -3.2814    0.4534   -0.1743 C   0  0  0  0  0  0  0  0  0  0  0  0
    2.1583    0.7232    0.0606 C   0  0  0  0  0  0  0  0  0  0  0  0
   -0.8109   -0.1518   -1.4200 H   0  0  0  0  0  0  0  0  0  0  0  0
   -0.4765    0.9161   -0.0557 H   0  0  0  0  0  0  0  0  0  0  0  0
    0.3811   -1.0940    1.2232 H   0  0  0  0  0  0  0  0  0  0  0  0
    0.1283   -2.0881   -0.2127 H   0  0  0  0  0  0  0  0  0  0  0  0
   -2.0410   -0.3834    1.3675 H   0  0  0  0  0  0  0  0  0  0  0  0
    1.7296   -0.6820   -1.5076 H   0  0  0  0  0  0  0  0  0  0  0  0
   -4.2071    0.1082    0.3011 H   0  0  0  0  0  0  0  0  0  0  0  0
   -3.4379    0.3476   -1.2544 H   0  0  0  0  0  0  0  0  0  0  0  0
    3.6499   -1.3840   -0.3601 H   0  0  0  0  0  0  0  0  0  0  0  0
    2.5117   -2.5409   -0.2177 H   0  0  0  0  0  0  0  0  0  0  0  0
   -2.5095   -1.8766   -0.9973 H   0  0  0  0  0  0  0  0  0  0  0  0
   -3.8759    2.4015   -0.1562 H   0  0  0  0  0  0  0  0  0  0  0  0
   -2.2735    2.2200   -0.3730 H   0  0  0  0  0  0  0  0  0  0  0  0
    2.6225    2.4715   -0.6675 H   0  0  0  0  0  0  0  0  0  0  0  0
  1  8  1  0  0  0  0
  1 22  1  0  0  0  0
  2 11  1  0  0  0  0
  2 25  1  0  0  0  0
  3 11  2  0  0  0  0
  4  9  1  0  0  0  0
  4 20  1  0  0  0  0
  4 21  1  0  0  0  0
  5 10  1  0  0  0  0
  5 23  1  0  0  0  0
  5 24  1  0  0  0  0
  6  7  1  0  0  0  0
  6  8  1  0  0  0  0
  6 12  1  0  0  0  0
  6 13  1  0  0  0  0
  7  9  1  0  0  0  0
  7 14  1  0  0  0  0
  7 15  1  0  0  0  0
  8 10  1  0  0  0  0
  8 16  1  0  0  0  0
  9 11  1  0  0  0  0
  9 17  1  0  0  0  0
 10 18  1  0  0  0  0
 10 19  1  0  0  0  0
M  END
> <PUBCHEM_COMPOUND_CID>
1029

> <PUBCHEM_CONFORMER_RMSD>
0.6

> <PUBCHEM_CONFORMER_DIVERSEORDER>
35
127
170
85
166
73
185
182
143
28
159
156
31
141
186
114
164
14
180
111
172
176
52
18
84
163
123
105
64
184
149
2
147
24
23
167
168
121
27
144
71
145
74
183
148
78
171
69
54
162
44
48
88
26
93
130
158
152
12
92
138
102
13
139
94
151
17
179
129
75
118
112
58
128
110
136
137
47
96
131
146
117
25
169
5
99
61
34
83
142
155
134
126
1
175
41
67
133
91
140
60
8
107
160
104
113
181
101
173
51
120
109
177
97
116
20
79
68
108
90
82
4
43
76
132
150
125
103
157
100
57
154
9
106
11
89
50
77
66
72
161
45
30
87
165
15
7
46
42
95
98
37
56
63
19
81
59
70
62
16
55
40
174
65
21
178
39
122
153
38
3
124
49
119
32
22
6
115
10
135
33
80
36
86
29
53

> <PUBCHEM_MMFF94_PARTIAL_CHARGES>
15
1 -0.68
10 0.27
11 0.66
2 -0.65
20 0.36
21 0.36
22 0.4
23 0.36
24 0.36
25 0.5
3 -0.57
4 -0.99
5 -0.99
8 0.28
9 0.33

> <PUBCHEM_EFFECTIVE_ROTOR_COUNT>
5

> <PUBCHEM_PHARMACOPHORE_FEATURES>
9
1 1 acceptor
1 1 donor
1 2 acceptor
1 3 acceptor
1 4 cation
1 4 donor
1 5 cation
1 5 donor
3 2 3 11 anion

> <PUBCHEM_HEAVY_ATOM_COUNT>
11

> <PUBCHEM_ATOM_DEF_STEREO_COUNT>
0

> <PUBCHEM_ATOM_UDEF_STEREO_COUNT>
2

> <PUBCHEM_BOND_DEF_STEREO_COUNT>
0

> <PUBCHEM_BOND_UDEF_STEREO_COUNT>
0

> <PUBCHEM_ISOTOPIC_ATOM_COUNT>
0

> <PUBCHEM_COMPONENT_COUNT>
1

> <PUBCHEM_CACTVS_TAUTO_COUNT>
1

> <PUBCHEM_CONFORMER_ID>
0000040500000023

> <PUBCHEM_MMFF94_ENERGY>
7.3798

> <PUBCHEM_FEATURE_SELFOVERLAP>
45.73

> <PUBCHEM_SHAPE_FINGERPRINT>
12162725 195 18411980235128125845
12932764 1 17917153908839659463
13618510 140 18335143119620796557
13922767 16 18271236110927090730
14325111 11 18410293631330172247
14390081 3 18343017800671628129
15775835 57 18272092724752940457
18511873 20 18265333902191359939
19973954 147 18409451401117681589
20653085 51 18336557018907377307
230 275 18408600370459289592
23552423 10 18334295378902006811
3248919 1 18187919629400273807
9939556 21 18411136909488413359

> <PUBCHEM_SHAPE_MULTIPOLES>
198.8
5.59
1.81
0.8
2.21
0.1
-0.06
1.22
-0.08
0.04
0.02
-0.4
0.22
-0.05

> <PUBCHEM_SHAPE_SELFOVERLAP>
369.809

> <PUBCHEM_SHAPE_VOLUME>
124.4

> <PUBCHEM_COORDINATE_TYPE>
2
5
10

$$$$
