178869951
  -OEChem-08152605412D

 15 12  0     0  0  0  0  0  0999 V2000
    2.8660   -0.2500    0.0000 Dy  0  0  0  0  0  0  0  0  0  0  0  0
    2.0000    0.2500    0.0000 Dy  0  0  0  0  0  0  0  0  0  0  0  0
    5.4641    0.2500    0.0000 O   0  0  0  0  0  0  0  0  0  0  0  0
    7.1962    0.2500    0.0000 O   0  0  0  0  0  0  0  0  0  0  0  0
    4.5981   -0.2500    0.0000 O   0  0  0  0  0  0  0  0  0  0  0  0
    8.0622   -0.2500    0.0000 O   0  0  0  0  0  0  0  0  0  0  0  0
    9.7942   -0.2500    0.0000 O   0  0  0  0  0  0  0  0  0  0  0  0
    6.3301   -1.2500    0.0000 O   0  0  0  0  0  0  0  0  0  0  0  0
    3.7321    1.2500    0.0000 O   0  0  0  0  0  0  0  0  0  0  0  0
    8.9282    1.2500    0.0000 O   0  0  0  0  0  0  0  0  0  0  0  0
   10.6603    0.2500    0.0000 O   0  0  0  0  0  0  0  0  0  0  0  0
    6.3301   -0.2500    0.0000 C   0  0  0  0  0  0  0  0  0  0  0  0
    3.7321    0.2500    0.0000 C   0  5  0  0  0  0  0  0  0  0  0  0
    8.9282    0.2500    0.0000 C   0  0  0  0  0  0  0  0  0  0  0  0
   11.1972   -0.0600    0.0000 H   0  0  0  0  0  0  0  0  0  0  0  0
  3  5  1  0  0  0  0
  3 12  1  0  0  0  0
  4  6  1  0  0  0  0
  4 12  1  0  0  0  0
  5 13  1  0  0  0  0
  6 14  1  0  0  0  0
  7 11  1  0  0  0  0
  7 14  1  0  0  0  0
  8 12  2  0  0  0  0
  9 13  2  0  0  0  0
 10 14  2  0  0  0  0
 11 15  1  0  0  0  0
M  CHG  1  13  -1
M  END
> <PUBCHEM_COMPOUND_CID>
178869951

> <PUBCHEM_COMPOUND_CANONICALIZED>
1

> <PUBCHEM_CACTVS_COMPLEXITY>
181

> <PUBCHEM_CACTVS_HBOND_ACCEPTOR>
10

> <PUBCHEM_CACTVS_HBOND_DONOR>
1

> <PUBCHEM_CACTVS_ROTATABLE_BOND>
6

> <PUBCHEM_CACTVS_SUBSKEYS>
AAADcQBAPAAAAAAAAAAAAAAIAAAAAAAAAAAAAAAAAAAAAAAAAAAAAgAADAAAAAAAAAAACAAAAAAIAAAACAAAAAAAAAAAAAAAAAAAAAAAAAAAAAAAAAAAAAAAAAAAAAAAAAAAAAAAAAAAAAAAAAAAAAAAAA==

> <PUBCHEM_IUPAC_OPENEYE_NAME>
carbonoperoxoyloxy oxomethoxy carbonate;dysprosium

> <PUBCHEM_IUPAC_CAS_NAME>
carbonic acid carbonoperoxoyloxy oxomethoxy ester;dysprosium

> <PUBCHEM_IUPAC_NAME_MARKUP>
carbonoperoxoyloxy oxomethoxy carbonate;dysprosium

> <PUBCHEM_IUPAC_NAME>
carbonoperoxoyloxy oxomethoxy carbonate;dysprosium

> <PUBCHEM_IUPAC_SYSTEMATIC_NAME>
carbonoperoxoyloxy oxidanylidenemethoxy carbonate;dysprosium

> <PUBCHEM_IUPAC_TRADITIONAL_NAME>
carbonic acid carbonoperoxoyloxy ketomethoxy ester;dysprosium

> <PUBCHEM_IUPAC_INCHI>
InChI=1S/C3HO9.2Dy/c4-1-8-10-3(6)12-11-2(5)9-7;;/h7H;;/q-1;;

> <PUBCHEM_IUPAC_INCHIKEY>
XRCJRVGFQVZGGX-UHFFFAOYSA-N

> <PUBCHEM_EXACT_MASS>
506.81804

> <PUBCHEM_MOLECULAR_FORMULA>
C3HDy2O9-

> <PUBCHEM_MOLECULAR_WEIGHT>
506.03

> <PUBCHEM_SMILES>
[C-](=O)OOC(=O)OOC(=O)OO.[Dy].[Dy]

> <PUBCHEM_CONNECTIVITY_SMILES>
[C-](=O)OOC(=O)OOC(=O)OO.[Dy].[Dy]

> <PUBCHEM_CACTVS_TPSA>
118

> <PUBCHEM_MONOISOTOPIC_WEIGHT>
508.82042

> <PUBCHEM_TOTAL_CHARGE>
-1

> <PUBCHEM_HEAVY_ATOM_COUNT>
14

> <PUBCHEM_ATOM_DEF_STEREO_COUNT>
0

> <PUBCHEM_ATOM_UDEF_STEREO_COUNT>
0

> <PUBCHEM_BOND_DEF_STEREO_COUNT>
0

> <PUBCHEM_BOND_UDEF_STEREO_COUNT>
0

> <PUBCHEM_ISOTOPIC_ATOM_COUNT>
0

> <PUBCHEM_COMPONENT_COUNT>
3

> <PUBCHEM_CACTVS_TAUTO_COUNT>
-1

> <PUBCHEM_NONSTANDARDBOND>
1  13  6
1  2  6

> <PUBCHEM_COORDINATE_TYPE>
1
5
255

$$$$
