16211889
  -OEChem-08152606442D

  9  6  0     0  0  0  0  0  0999 V2000
    0.0000    1.7500    0.0000 Dy  0  0  0  0  0  0  0  0  0  0  0  0
    4.2321    1.5000    0.0000 O   0  0  0  0  0  0  0  0  0  0  0  0
    2.5000    1.5000    0.0000 O   0  5  0  0  0  0  0  0  0  0  0  0
    3.3660    0.0000    0.0000 O   0  0  0  0  0  0  0  0  0  0  0  0
    3.6345    3.5000    0.0000 O   0  0  0  0  0  0  0  0  0  0  0  0
    3.3660    1.0000    0.0000 N   0  3  0  0  0  0  0  0  0  0  0  0
    4.7690    1.1900    0.0000 H   0  0  0  0  0  0  0  0  0  0  0  0
    4.1714    3.8100    0.0000 H   0  0  0  0  0  0  0  0  0  0  0  0
    3.0976    3.8100    0.0000 H   0  0  0  0  0  0  0  0  0  0  0  0
  2  6  1  0  0  0  0
  2  7  1  0  0  0  0
  3  6  1  0  0  0  0
  4  6  2  0  0  0  0
  5  8  1  0  0  0  0
  5  9  1  0  0  0  0
M  CHG  2   3  -1   6   1
M  END
> <PUBCHEM_COMPOUND_CID>
16211889

> <PUBCHEM_COMPOUND_CANONICALIZED>
1

> <PUBCHEM_CACTVS_COMPLEXITY>
24.8

> <PUBCHEM_CACTVS_HBOND_ACCEPTOR>
4

> <PUBCHEM_CACTVS_HBOND_DONOR>
2

> <PUBCHEM_CACTVS_ROTATABLE_BOND>
0

> <PUBCHEM_CACTVS_SUBSKEYS>
AAADcQACOAAAAAAAAAAAAAAIAAAAAAAAAAAAAAAAAAAAAAAAAAAAAAAECAAAAAAAAAAAAAAAQAABAAAAAQAAAAAAAAAAAAAAAAAAAAAAAAAAAAAAAAAAAAAAAAAAAAAAAAAAAAAAAAAAAAAAAAAAAAAAAA==

> <PUBCHEM_IUPAC_OPENEYE_NAME>
dysprosium;nitric acid;hydrate

> <PUBCHEM_IUPAC_CAS_NAME>
dysprosium;nitric acid;hydrate

> <PUBCHEM_IUPAC_NAME_MARKUP>
dysprosium;nitric acid;hydrate

> <PUBCHEM_IUPAC_NAME>
dysprosium;nitric acid;hydrate

> <PUBCHEM_IUPAC_SYSTEMATIC_NAME>
dysprosium;nitric acid;hydrate

> <PUBCHEM_IUPAC_TRADITIONAL_NAME>
dysprosium;nitric acid;hydrate

> <PUBCHEM_IUPAC_INCHI>
InChI=1S/Dy.HNO3.H2O/c;2-1(3)4;/h;(H,2,3,4);1H2

> <PUBCHEM_IUPAC_INCHIKEY>
OITWRKYIGNHBQF-UHFFFAOYSA-N

> <PUBCHEM_EXACT_MASS>
244.935388

> <PUBCHEM_MOLECULAR_FORMULA>
DyH3NO4

> <PUBCHEM_MOLECULAR_WEIGHT>
243.53

> <PUBCHEM_SMILES>
[N+](=O)(O)[O-].O.[Dy]

> <PUBCHEM_CONNECTIVITY_SMILES>
[N+](=O)(O)[O-].O.[Dy]

> <PUBCHEM_CACTVS_TPSA>
67.1

> <PUBCHEM_MONOISOTOPIC_WEIGHT>
244.935388

> <PUBCHEM_TOTAL_CHARGE>
0

> <PUBCHEM_HEAVY_ATOM_COUNT>
6

> <PUBCHEM_ATOM_DEF_STEREO_COUNT>
0

> <PUBCHEM_ATOM_UDEF_STEREO_COUNT>
0

> <PUBCHEM_BOND_DEF_STEREO_COUNT>
0

> <PUBCHEM_BOND_UDEF_STEREO_COUNT>
0

> <PUBCHEM_ISOTOPIC_ATOM_COUNT>
0

> <PUBCHEM_COMPONENT_COUNT>
3

> <PUBCHEM_CACTVS_TAUTO_COUNT>
-1

> <PUBCHEM_COORDINATE_TYPE>
1
5
255

$$$$
