82803
  -OEChem-08152604332D

  2  1  0     0  0  0  0  0  0999 V2000
    3.0000    0.0000    0.0000 Dy  0  0  0  0  0  0  0  0  0  0  0  0
    2.0000    0.0000    0.0000 N   0  0  0  0  0  0  0  0  0  0  0  0
  1  2  3  0  0  0  0
M  END
> <PUBCHEM_COMPOUND_CID>
82803

> <PUBCHEM_COMPOUND_CANONICALIZED>
1

> <PUBCHEM_CACTVS_COMPLEXITY>
10

> <PUBCHEM_CACTVS_HBOND_ACCEPTOR>
1

> <PUBCHEM_CACTVS_HBOND_DONOR>
0

> <PUBCHEM_CACTVS_ROTATABLE_BOND>
0

> <PUBCHEM_CACTVS_SUBSKEYS>
AAADcQACAAAAAAAAAAAAAAAIAAAAAAAAAAAAAAAAAAAAAAAAAAAAAAAAAAAAAAAAAAAAAAAAAAAAAAAAAAAAAAAAAAAAAAAAAAAAAAAAAAAAAAAAAAAAAAAAAAAAAAAAAAAAAAAAAAAAAAAAAAAAAAAAAA==

> <PUBCHEM_IUPAC_OPENEYE_NAME>
nitridodysprosium

> <PUBCHEM_IUPAC_CAS_NAME>
nitrilodysprosium

> <PUBCHEM_IUPAC_NAME_MARKUP>
azanylidynedysprosium

> <PUBCHEM_IUPAC_NAME>
azanylidynedysprosium

> <PUBCHEM_IUPAC_SYSTEMATIC_NAME>
azanylidynedysprosium

> <PUBCHEM_IUPAC_TRADITIONAL_NAME>
nitrilodysprosium

> <PUBCHEM_IUPAC_INCHI>
InChI=1S/Dy.N

> <PUBCHEM_IUPAC_INCHIKEY>
IBIOTXDDKRNYMC-UHFFFAOYSA-N

> <PUBCHEM_EXACT_MASS>
177.932255

> <PUBCHEM_MOLECULAR_FORMULA>
DyN

> <PUBCHEM_MOLECULAR_WEIGHT>
176.507

> <PUBCHEM_SMILES>
N#[Dy]

> <PUBCHEM_CONNECTIVITY_SMILES>
N#[Dy]

> <PUBCHEM_CACTVS_TPSA>
23.8

> <PUBCHEM_MONOISOTOPIC_WEIGHT>
177.932255

> <PUBCHEM_TOTAL_CHARGE>
0

> <PUBCHEM_HEAVY_ATOM_COUNT>
2

> <PUBCHEM_ATOM_DEF_STEREO_COUNT>
0

> <PUBCHEM_ATOM_UDEF_STEREO_COUNT>
0

> <PUBCHEM_BOND_DEF_STEREO_COUNT>
0

> <PUBCHEM_BOND_UDEF_STEREO_COUNT>
0

> <PUBCHEM_ISOTOPIC_ATOM_COUNT>
0

> <PUBCHEM_COMPONENT_COUNT>
1

> <PUBCHEM_CACTVS_TAUTO_COUNT>
-1

> <PUBCHEM_COORDINATE_TYPE>
1
5
255

$$$$
