90470543
  -OEChem-08152606272D

 56 41  0     0  0  0  0  0  0999 V2000
    3.1307    6.3479    0.0000 Dy  0  0  0  0  0  0  0  0  0  0  0  0
    1.3987    2.3479    0.0000 Dy  0  0  0  0  0  0  0  0  0  0  0  0
    2.3217    6.9356    0.0000 O   0  0  0  0  0  0  0  0  0  0  0  0
    3.9397    6.9356    0.0000 O   0  0  0  0  0  0  0  0  0  0  0  0
    0.5897    1.7601    0.0000 O   0  0  0  0  0  0  0  0  0  0  0  0
    2.2077    1.7601    0.0000 O   0  0  0  0  0  0  0  0  0  0  0  0
    3.1307    5.3479    0.0000 O   0  0  0  0  0  0  0  0  0  0  0  0
    1.3987    3.3479    0.0000 O   0  0  0  0  0  0  0  0  0  0  0  0
    2.0429    8.6957    0.0000 O   0  0  0  0  0  0  0  0  0  0  0  0
    4.2185    8.6957    0.0000 O   0  0  0  0  0  0  0  0  0  0  0  0
    0.3109    0.0000    0.0000 O   0  0  0  0  0  0  0  0  0  0  0  0
    2.4865    0.0000    0.0000 O   0  0  0  0  0  0  0  0  0  0  0  0
    1.3987    5.3479    0.0000 O   0  0  0  0  0  0  0  0  0  0  0  0
    3.1307    3.3479    0.0000 O   0  0  0  0  0  0  0  0  0  0  0  0
    7.0663    9.0979    0.0000 O   0  0  0  0  0  0  0  0  0  0  0  0
    7.0663    4.0979    0.0000 O   0  0  0  0  0  0  0  0  0  0  0  0
   10.1402    4.0979    0.0000 O   0  0  0  0  0  0  0  0  0  0  0  0
   13.2141    5.3479    0.0000 O   0  0  0  0  0  0  0  0  0  0  0  0
    2.2647   10.6957    0.0000 O   0  0  0  0  0  0  0  0  0  0  0  0
    7.0663    6.5979    0.0000 O   0  0  0  0  0  0  0  0  0  0  0  0
   10.1402    6.5979    0.0000 O   0  0  0  0  0  0  0  0  0  0  0  0
   13.2141    7.8479    0.0000 O   0  0  0  0  0  0  0  0  0  0  0  0
    2.2647   13.1957    0.0000 O   0  0  0  0  0  0  0  0  0  0  0  0
   10.1402    9.0979    0.0000 O   0  0  0  0  0  0  0  0  0  0  0  0
    2.6307    7.8867    0.0000 C   0  0  0  0  0  0  0  0  0  0  0  0
    3.6307    7.8867    0.0000 C   0  0  0  0  0  0  0  0  0  0  0  0
    0.8987    0.8090    0.0000 C   0  0  0  0  0  0  0  0  0  0  0  0
    1.8987    0.8090    0.0000 C   0  0  0  0  0  0  0  0  0  0  0  0
    2.2647    4.8479    0.0000 C   0  0  0  0  0  0  0  0  0  0  0  0
    2.2647    3.8479    0.0000 C   0  0  0  0  0  0  0  0  0  0  0  0
    1.7321    6.7441    0.0000 H   0  0  0  0  0  0  0  0  0  0  0  0
    4.5294    6.7441    0.0000 H   0  0  0  0  0  0  0  0  0  0  0  0
    0.0000    1.9517    0.0000 H   0  0  0  0  0  0  0  0  0  0  0  0
    2.7973    1.9517    0.0000 H   0  0  0  0  0  0  0  0  0  0  0  0
    3.6677    5.0379    0.0000 H   0  0  0  0  0  0  0  0  0  0  0  0
    0.8617    3.6579    0.0000 H   0  0  0  0  0  0  0  0  0  0  0  0
    7.6033    9.4079    0.0000 H   0  0  0  0  0  0  0  0  0  0  0  0
    6.5294    9.4079    0.0000 H   0  0  0  0  0  0  0  0  0  0  0  0
    7.6033    4.4079    0.0000 H   0  0  0  0  0  0  0  0  0  0  0  0
    6.5294    4.4079    0.0000 H   0  0  0  0  0  0  0  0  0  0  0  0
   10.6771    4.4079    0.0000 H   0  0  0  0  0  0  0  0  0  0  0  0
    9.6033    4.4079    0.0000 H   0  0  0  0  0  0  0  0  0  0  0  0
   13.7510    5.6579    0.0000 H   0  0  0  0  0  0  0  0  0  0  0  0
   12.6771    5.6579    0.0000 H   0  0  0  0  0  0  0  0  0  0  0  0
    2.8016   11.0057    0.0000 H   0  0  0  0  0  0  0  0  0  0  0  0
    1.7278   11.0057    0.0000 H   0  0  0  0  0  0  0  0  0  0  0  0
    7.6033    6.9079    0.0000 H   0  0  0  0  0  0  0  0  0  0  0  0
    6.5294    6.9079    0.0000 H   0  0  0  0  0  0  0  0  0  0  0  0
   10.6771    6.9079    0.0000 H   0  0  0  0  0  0  0  0  0  0  0  0
    9.6033    6.9079    0.0000 H   0  0  0  0  0  0  0  0  0  0  0  0
   13.7510    8.1579    0.0000 H   0  0  0  0  0  0  0  0  0  0  0  0
   12.6771    8.1579    0.0000 H   0  0  0  0  0  0  0  0  0  0  0  0
    2.8016   13.5057    0.0000 H   0  0  0  0  0  0  0  0  0  0  0  0
    1.7278   13.5057    0.0000 H   0  0  0  0  0  0  0  0  0  0  0  0
   10.6771    9.4079    0.0000 H   0  0  0  0  0  0  0  0  0  0  0  0
    9.6033    9.4079    0.0000 H   0  0  0  0  0  0  0  0  0  0  0  0
  3 25  1  0  0  0  0
  3 31  1  0  0  0  0
  4 26  1  0  0  0  0
  4 32  1  0  0  0  0
  5 27  1  0  0  0  0
  5 33  1  0  0  0  0
  6 28  1  0  0  0  0
  6 34  1  0  0  0  0
  7 29  1  0  0  0  0
  7 35  1  0  0  0  0
  8 30  1  0  0  0  0
  8 36  1  0  0  0  0
  9 25  2  0  0  0  0
 10 26  2  0  0  0  0
 11 27  2  0  0  0  0
 12 28  2  0  0  0  0
 13 29  2  0  0  0  0
 14 30  2  0  0  0  0
 15 37  1  0  0  0  0
 15 38  1  0  0  0  0
 16 39  1  0  0  0  0
 16 40  1  0  0  0  0
 17 41  1  0  0  0  0
 17 42  1  0  0  0  0
 18 43  1  0  0  0  0
 18 44  1  0  0  0  0
 19 45  1  0  0  0  0
 19 46  1  0  0  0  0
 20 47  1  0  0  0  0
 20 48  1  0  0  0  0
 21 49  1  0  0  0  0
 21 50  1  0  0  0  0
 22 51  1  0  0  0  0
 22 52  1  0  0  0  0
 23 53  1  0  0  0  0
 23 54  1  0  0  0  0
 24 55  1  0  0  0  0
 24 56  1  0  0  0  0
 25 26  1  0  0  0  0
 27 28  1  0  0  0  0
 29 30  1  0  0  0  0
M  END
> <PUBCHEM_COMPOUND_CID>
90470543

> <PUBCHEM_COMPOUND_CANONICALIZED>
1

> <PUBCHEM_CACTVS_COMPLEXITY>
314

> <PUBCHEM_CACTVS_HBOND_ACCEPTOR>
22

> <PUBCHEM_CACTVS_HBOND_DONOR>
16

> <PUBCHEM_CACTVS_ROTATABLE_BOND>
1

> <PUBCHEM_CACTVS_SUBSKEYS>
AAADceBgPgAAAAAAAAAAAAAIAAAAASJAAAAAAAAAAAAAAAAAAAAACgAACAAAAAAAgAAACAAAAgAIAACQCAIAAAAAAAAAAABAAAABAAAAAAAAAAAAAAABAAAAAAAAAAAAAAAAAAAAAAAAAAAAAAAAAAAAAA==

> <PUBCHEM_IUPAC_OPENEYE_NAME>
dysprosium;oxalic acid;decahydrate

> <PUBCHEM_IUPAC_CAS_NAME>
dysprosium;oxalic acid;decahydrate

> <PUBCHEM_IUPAC_NAME_MARKUP>
dysprosium;oxalic acid;decahydrate

> <PUBCHEM_IUPAC_NAME>
dysprosium;oxalic acid;decahydrate

> <PUBCHEM_IUPAC_SYSTEMATIC_NAME>
dysprosium;tris(ethanedioic acid);decahydrate

> <PUBCHEM_IUPAC_TRADITIONAL_NAME>
dysprosium;oxalic acid;decahydrate

> <PUBCHEM_IUPAC_INCHI>
InChI=1S/3C2H2O4.2Dy.10H2O/c3*3-1(4)2(5)6;;;;;;;;;;;;/h3*(H,3,4)(H,5,6);;;10*1H2

> <PUBCHEM_IUPAC_INCHIKEY>
WJYBVSNZIQHDSA-UHFFFAOYSA-N

> <PUBCHEM_EXACT_MASS>
775.94756

> <PUBCHEM_MOLECULAR_FORMULA>
C6H26Dy2O22

> <PUBCHEM_MOLECULAR_WEIGHT>
775.26

> <PUBCHEM_SMILES>
C(=O)(C(=O)O)O.C(=O)(C(=O)O)O.C(=O)(C(=O)O)O.O.O.O.O.O.O.O.O.O.O.[Dy].[Dy]

> <PUBCHEM_CONNECTIVITY_SMILES>
C(=O)(C(=O)O)O.C(=O)(C(=O)O)O.C(=O)(C(=O)O)O.O.O.O.O.O.O.O.O.O.O.[Dy].[Dy]

> <PUBCHEM_CACTVS_TPSA>
234

> <PUBCHEM_MONOISOTOPIC_WEIGHT>
777.94993

> <PUBCHEM_TOTAL_CHARGE>
0

> <PUBCHEM_HEAVY_ATOM_COUNT>
30

> <PUBCHEM_ATOM_DEF_STEREO_COUNT>
0

> <PUBCHEM_ATOM_UDEF_STEREO_COUNT>
0

> <PUBCHEM_BOND_DEF_STEREO_COUNT>
0

> <PUBCHEM_BOND_UDEF_STEREO_COUNT>
0

> <PUBCHEM_ISOTOPIC_ATOM_COUNT>
0

> <PUBCHEM_COMPONENT_COUNT>
15

> <PUBCHEM_CACTVS_TAUTO_COUNT>
-1

> <PUBCHEM_NONSTANDARDBOND>
1  3  6
1  4  6
1  7  6
2  5  6
2  6  6
2  8  6

> <PUBCHEM_COORDINATE_TYPE>
1
5
255

$$$$
