84931
  -OEChem-08152605412D

  4  0  0     0  0  0  0  0  0999 V2000
    2.8660    0.2500    0.0000 Dy  0  1  0  0  0  0  0  0  0  0  0  0
    3.7321    0.7500    0.0000 I   0  5  0  0  0  0  0  0  0  0  0  0
    2.0000    0.7500    0.0000 I   0  5  0  0  0  0  0  0  0  0  0  0
    2.8660   -0.7500    0.0000 I   0  5  0  0  0  0  0  0  0  0  0  0
M  CHG  4   1   3   2  -1   3  -1   4  -1
M  END
> <PUBCHEM_COMPOUND_CID>
84931

> <PUBCHEM_COMPOUND_CANONICALIZED>
1

> <PUBCHEM_CACTVS_COMPLEXITY>
0

> <PUBCHEM_CACTVS_HBOND_ACCEPTOR>
3

> <PUBCHEM_CACTVS_HBOND_DONOR>
0

> <PUBCHEM_CACTVS_ROTATABLE_BOND>
0

> <PUBCHEM_CACTVS_SUBSKEYS>
AAADcQAAAAAAAwAAAAAAAAAIAAAAAAAAAAAAAAAAAAAAAAAAAAAAAAAAAAAAAAAAAAAAAAAAAAAAAAAAAAAAAAAAAAAAAAAAAAAAAAAAAAAAAAAAAAAAAAAAAAAAAAAAAAAAAAAAAAAAAAAAAAAAAAAAAA==

> <PUBCHEM_IUPAC_OPENEYE_NAME>
dysprosium(3+) triiodide

> <PUBCHEM_IUPAC_CAS_NAME>
dysprosium(3+) triiodide

> <PUBCHEM_IUPAC_NAME_MARKUP>
dysprosium(3+) triiodide

> <PUBCHEM_IUPAC_NAME>
dysprosium(3+) triiodide

> <PUBCHEM_IUPAC_SYSTEMATIC_NAME>
dysprosium(3+) triiodide

> <PUBCHEM_IUPAC_TRADITIONAL_NAME>
dysprosium(3+) triiodide

> <PUBCHEM_IUPAC_INCHI>
InChI=1S/Dy.3HI/h;3*1H/q+3;;;/p-3

> <PUBCHEM_IUPAC_INCHIKEY>
RZQFCZYXPRKMTP-UHFFFAOYSA-K

> <PUBCHEM_EXACT_MASS>
544.6426

> <PUBCHEM_MOLECULAR_FORMULA>
DyI3

> <PUBCHEM_MOLECULAR_WEIGHT>
543.213

> <PUBCHEM_SMILES>
[I-].[I-].[I-].[Dy+3]

> <PUBCHEM_CONNECTIVITY_SMILES>
[I-].[I-].[I-].[Dy+3]

> <PUBCHEM_CACTVS_TPSA>
0

> <PUBCHEM_MONOISOTOPIC_WEIGHT>
544.6426

> <PUBCHEM_TOTAL_CHARGE>
0

> <PUBCHEM_HEAVY_ATOM_COUNT>
4

> <PUBCHEM_ATOM_DEF_STEREO_COUNT>
0

> <PUBCHEM_ATOM_UDEF_STEREO_COUNT>
0

> <PUBCHEM_BOND_DEF_STEREO_COUNT>
0

> <PUBCHEM_BOND_UDEF_STEREO_COUNT>
0

> <PUBCHEM_ISOTOPIC_ATOM_COUNT>
0

> <PUBCHEM_COMPONENT_COUNT>
4

> <PUBCHEM_CACTVS_TAUTO_COUNT>
-1

> <PUBCHEM_COORDINATE_TYPE>
1
5
255

$$$$
