82806
  -OEChem-08152606072D

  2  1  0     0  0  0  0  0  0999 V2000
    3.0000    0.0000    0.0000 Er  0  0  0  0  0  0  0  0  0  0  0  0
    2.0000    0.0000    0.0000 N   0  0  0  0  0  0  0  0  0  0  0  0
  1  2  3  0  0  0  0
M  END
> <PUBCHEM_COMPOUND_CID>
82806

> <PUBCHEM_COMPOUND_CANONICALIZED>
1

> <PUBCHEM_CACTVS_COMPLEXITY>
10

> <PUBCHEM_CACTVS_HBOND_ACCEPTOR>
1

> <PUBCHEM_CACTVS_HBOND_DONOR>
0

> <PUBCHEM_CACTVS_ROTATABLE_BOND>
0

> <PUBCHEM_CACTVS_SUBSKEYS>
AAADcQACAAAAAAAAAAAAAAACAAAAAAAAAAAAAAAAAAAAAAAAAAAAAAAAAAAAAAAAAAAAAAAAAAAAAAAAAAAAAAAAAAAAAAAAAAAAAAAAAAAAAAAAAAAAAAAAAAAAAAAAAAAAAAAAAAAAAAAAAAAAAAAAAA==

> <PUBCHEM_IUPAC_OPENEYE_NAME>
nitridoerbium

> <PUBCHEM_IUPAC_CAS_NAME>
nitriloerbium

> <PUBCHEM_IUPAC_NAME_MARKUP>
azanylidyneerbium

> <PUBCHEM_IUPAC_NAME>
azanylidyneerbium

> <PUBCHEM_IUPAC_SYSTEMATIC_NAME>
azanylidyneerbium

> <PUBCHEM_IUPAC_TRADITIONAL_NAME>
nitriloerbium

> <PUBCHEM_IUPAC_INCHI>
InChI=1S/Er.N

> <PUBCHEM_IUPAC_INCHIKEY>
VZVZYLVXLCEAMR-UHFFFAOYSA-N

> <PUBCHEM_EXACT_MASS>
179.933375

> <PUBCHEM_MOLECULAR_FORMULA>
ErN

> <PUBCHEM_MOLECULAR_WEIGHT>
181.27

> <PUBCHEM_SMILES>
N#[Er]

> <PUBCHEM_CONNECTIVITY_SMILES>
N#[Er]

> <PUBCHEM_CACTVS_TPSA>
23.8

> <PUBCHEM_MONOISOTOPIC_WEIGHT>
179.933375

> <PUBCHEM_TOTAL_CHARGE>
0

> <PUBCHEM_HEAVY_ATOM_COUNT>
2

> <PUBCHEM_ATOM_DEF_STEREO_COUNT>
0

> <PUBCHEM_ATOM_UDEF_STEREO_COUNT>
0

> <PUBCHEM_BOND_DEF_STEREO_COUNT>
0

> <PUBCHEM_BOND_UDEF_STEREO_COUNT>
0

> <PUBCHEM_ISOTOPIC_ATOM_COUNT>
0

> <PUBCHEM_COMPONENT_COUNT>
1

> <PUBCHEM_CACTVS_TAUTO_COUNT>
-1

> <PUBCHEM_COORDINATE_TYPE>
1
5
255

$$$$
