160806
  -OEChem-08152607182D

 41 35  0     0  0  0  0  0  0999 V2000
    3.1350    3.1350    0.0000 Ta  0  0  0  0  0  0  0  0  0  0  0  0
    4.0010    3.6350    0.0000 O   0  5  0  0  0  0  0  0  0  0  0  0
    2.6350    4.0010    0.0000 O   0  5  0  0  0  0  0  0  0  0  0  0
    2.2690    2.6350    0.0000 O   0  5  0  0  0  0  0  0  0  0  0  0
    4.2695    9.2450    0.0000 O   0  5  0  0  0  0  0  0  0  0  0  0
    3.6350    2.2690    0.0000 O   0  5  0  0  0  0  0  0  0  0  0  0
    4.8671    3.1350    0.0000 C   0  0  0  0  0  0  0  0  0  0  0  0
    3.1350    4.8671    0.0000 C   0  0  0  0  0  0  0  0  0  0  0  0
    1.4030    3.1350    0.0000 C   0  0  0  0  0  0  0  0  0  0  0  0
    3.4035    8.7450    0.0000 C   0  0  0  0  0  0  0  0  0  0  0  0
    3.1350    1.4030    0.0000 C   0  0  0  0  0  0  0  0  0  0  0  0
    5.7331    3.6350    0.0000 C   0  0  0  0  0  0  0  0  0  0  0  0
    2.6350    5.7331    0.0000 C   0  0  0  0  0  0  0  0  0  0  0  0
    0.5369    2.6350    0.0000 C   0  0  0  0  0  0  0  0  0  0  0  0
    2.5375    9.2450    0.0000 C   0  0  0  0  0  0  0  0  0  0  0  0
    3.6350    0.5369    0.0000 C   0  0  0  0  0  0  0  0  0  0  0  0
    4.4685    2.6601    0.0000 H   0  0  0  0  0  0  0  0  0  0  0  0
    5.2656    2.6601    0.0000 H   0  0  0  0  0  0  0  0  0  0  0  0
    3.6100    4.4685    0.0000 H   0  0  0  0  0  0  0  0  0  0  0  0
    3.6100    5.2656    0.0000 H   0  0  0  0  0  0  0  0  0  0  0  0
    1.8015    3.6100    0.0000 H   0  0  0  0  0  0  0  0  0  0  0  0
    1.0044    3.6100    0.0000 H   0  0  0  0  0  0  0  0  0  0  0  0
    3.0050    8.2700    0.0000 H   0  0  0  0  0  0  0  0  0  0  0  0
    3.8020    8.2700    0.0000 H   0  0  0  0  0  0  0  0  0  0  0  0
    2.6601    1.8015    0.0000 H   0  0  0  0  0  0  0  0  0  0  0  0
    2.6601    1.0044    0.0000 H   0  0  0  0  0  0  0  0  0  0  0  0
    6.0431    3.0981    0.0000 H   0  0  0  0  0  0  0  0  0  0  0  0
    6.2700    3.9450    0.0000 H   0  0  0  0  0  0  0  0  0  0  0  0
    5.4231    4.1720    0.0000 H   0  0  0  0  0  0  0  0  0  0  0  0
    3.1720    6.0431    0.0000 H   0  0  0  0  0  0  0  0  0  0  0  0
    2.3250    6.2700    0.0000 H   0  0  0  0  0  0  0  0  0  0  0  0
    2.0981    5.4231    0.0000 H   0  0  0  0  0  0  0  0  0  0  0  0
    0.2269    3.1720    0.0000 H   0  0  0  0  0  0  0  0  0  0  0  0
    0.0000    2.3250    0.0000 H   0  0  0  0  0  0  0  0  0  0  0  0
    0.8469    2.0981    0.0000 H   0  0  0  0  0  0  0  0  0  0  0  0
    2.8475    9.7819    0.0000 H   0  0  0  0  0  0  0  0  0  0  0  0
    2.0005    9.5550    0.0000 H   0  0  0  0  0  0  0  0  0  0  0  0
    2.2275    8.7080    0.0000 H   0  0  0  0  0  0  0  0  0  0  0  0
    3.0981    0.2269    0.0000 H   0  0  0  0  0  0  0  0  0  0  0  0
    3.9450    0.0000    0.0000 H   0  0  0  0  0  0  0  0  0  0  0  0
    4.1720    0.8469    0.0000 H   0  0  0  0  0  0  0  0  0  0  0  0
  2  7  1  0  0  0  0
  3  8  1  0  0  0  0
  4  9  1  0  0  0  0
  5 10  1  0  0  0  0
  6 11  1  0  0  0  0
  7 12  1  0  0  0  0
  7 17  1  0  0  0  0
  7 18  1  0  0  0  0
  8 13  1  0  0  0  0
  8 19  1  0  0  0  0
  8 20  1  0  0  0  0
  9 14  1  0  0  0  0
  9 21  1  0  0  0  0
  9 22  1  0  0  0  0
 10 15  1  0  0  0  0
 10 23  1  0  0  0  0
 10 24  1  0  0  0  0
 11 16  1  0  0  0  0
 11 25  1  0  0  0  0
 11 26  1  0  0  0  0
 12 27  1  0  0  0  0
 12 28  1  0  0  0  0
 12 29  1  0  0  0  0
 13 30  1  0  0  0  0
 13 31  1  0  0  0  0
 13 32  1  0  0  0  0
 14 33  1  0  0  0  0
 14 34  1  0  0  0  0
 14 35  1  0  0  0  0
 15 36  1  0  0  0  0
 15 37  1  0  0  0  0
 15 38  1  0  0  0  0
 16 39  1  0  0  0  0
 16 40  1  0  0  0  0
 16 41  1  0  0  0  0
M  CHG  6   1   5   2  -1   3  -1   4  -1   5  -1   6  -1
M  END
> <PUBCHEM_COMPOUND_CID>
160806

> <PUBCHEM_COMPOUND_CANONICALIZED>
1

> <PUBCHEM_CACTVS_COMPLEXITY>
2.8

> <PUBCHEM_CACTVS_HBOND_ACCEPTOR>
5

> <PUBCHEM_CACTVS_HBOND_DONOR>
0

> <PUBCHEM_CACTVS_ROTATABLE_BOND>
0

> <PUBCHEM_CACTVS_SUBSKEYS>
AAADceBwOAAAAAAAAAAAgAAAAAAAAAAAAAAAAAAAAAAAAAAAAAAAGgAAAAAAAACggAICAAAAAAAAAAAAAAAAAAAAAAAAAAAAAAAAAAAAAAAAAAAAAAAAAAAAAAAAAAAAAAAAAAAAAAAAAAAAAAAAAAAAAA==

> <PUBCHEM_IUPAC_OPENEYE_NAME>
ethanolate;tantalum(5+)

> <PUBCHEM_IUPAC_CAS_NAME>
ethanolate;tantalum(5+)

> <PUBCHEM_IUPAC_NAME_MARKUP>
ethanolate;tantalum(5+)

> <PUBCHEM_IUPAC_NAME>
ethanolate;tantalum(5+)

> <PUBCHEM_IUPAC_SYSTEMATIC_NAME>
ethanolate;tantalum(5+)

> <PUBCHEM_IUPAC_TRADITIONAL_NAME>
ethanolate;tantalum(5+)

> <PUBCHEM_IUPAC_INCHI>
InChI=1S/5C2H5O.Ta/c5*1-2-3;/h5*2H2,1H3;/q5*-1;+5

> <PUBCHEM_IUPAC_INCHIKEY>
HSXKFDGTKKAEHL-UHFFFAOYSA-N

> <PUBCHEM_EXACT_MASS>
406.11820

> <PUBCHEM_MOLECULAR_FORMULA>
C10H25O5Ta

> <PUBCHEM_MOLECULAR_WEIGHT>
406.25

> <PUBCHEM_SMILES>
CC[O-].CC[O-].CC[O-].CC[O-].CC[O-].[Ta+5]

> <PUBCHEM_CONNECTIVITY_SMILES>
CC[O-].CC[O-].CC[O-].CC[O-].CC[O-].[Ta+5]

> <PUBCHEM_CACTVS_TPSA>
115

> <PUBCHEM_MONOISOTOPIC_WEIGHT>
406.11820

> <PUBCHEM_TOTAL_CHARGE>
0

> <PUBCHEM_HEAVY_ATOM_COUNT>
16

> <PUBCHEM_ATOM_DEF_STEREO_COUNT>
0

> <PUBCHEM_ATOM_UDEF_STEREO_COUNT>
0

> <PUBCHEM_BOND_DEF_STEREO_COUNT>
0

> <PUBCHEM_BOND_UDEF_STEREO_COUNT>
0

> <PUBCHEM_ISOTOPIC_ATOM_COUNT>
0

> <PUBCHEM_COMPONENT_COUNT>
6

> <PUBCHEM_CACTVS_TAUTO_COUNT>
-1

> <PUBCHEM_COORDINATE_TYPE>
1
5
255

$$$$
