82809
  -OEChem-08152607402D

  2  1  0     0  0  0  0  0  0999 V2000
    3.0000    0.0000    0.0000 Eu  0  0  0  0  0  0  0  0  0  0  0  0
    2.0000    0.0000    0.0000 S   0  0  0  0  0  0  0  0  0  0  0  0
  1  2  2  0  0  0  0
M  END
> <PUBCHEM_COMPOUND_CID>
82809

> <PUBCHEM_COMPOUND_CANONICALIZED>
1

> <PUBCHEM_CACTVS_COMPLEXITY>
2

> <PUBCHEM_CACTVS_HBOND_ACCEPTOR>
1

> <PUBCHEM_CACTVS_HBOND_DONOR>
0

> <PUBCHEM_CACTVS_ROTATABLE_BOND>
0

> <PUBCHEM_CACTVS_SUBSKEYS>
AAADcQAAAABAAAAAAAAAAABAAAAAAAAAAAAAAAAAAAAAAAAAAAAAAAAAAAAAAAAAAAAAAAAAAAAAAAAAAAAAAAAAAAAAAAAAAAAAAAAAAAAAAAAAAAAAAAAAAAAAAAAAAAAAAAAAAAAAAAAAAAAAAAAAAA==

> <PUBCHEM_IUPAC_OPENEYE_NAME>
thioxoeuropium

> <PUBCHEM_IUPAC_CAS_NAME>
sulfanylideneeuropium

> <PUBCHEM_IUPAC_NAME_MARKUP>
sulfanylideneeuropium

> <PUBCHEM_IUPAC_NAME>
sulfanylideneeuropium

> <PUBCHEM_IUPAC_SYSTEMATIC_NAME>
sulfanylideneeuropium

> <PUBCHEM_IUPAC_TRADITIONAL_NAME>
thioxoeuropium

> <PUBCHEM_IUPAC_INCHI>
InChI=1S/Eu.S

> <PUBCHEM_IUPAC_INCHIKEY>
RVKZDIDATLDTNR-UHFFFAOYSA-N

> <PUBCHEM_EXACT_MASS>
184.89331

> <PUBCHEM_MOLECULAR_FORMULA>
EuS

> <PUBCHEM_MOLECULAR_WEIGHT>
184.03

> <PUBCHEM_SMILES>
S=[Eu]

> <PUBCHEM_CONNECTIVITY_SMILES>
S=[Eu]

> <PUBCHEM_CACTVS_TPSA>
32.1

> <PUBCHEM_MONOISOTOPIC_WEIGHT>
184.89331

> <PUBCHEM_TOTAL_CHARGE>
0

> <PUBCHEM_HEAVY_ATOM_COUNT>
2

> <PUBCHEM_ATOM_DEF_STEREO_COUNT>
0

> <PUBCHEM_ATOM_UDEF_STEREO_COUNT>
0

> <PUBCHEM_BOND_DEF_STEREO_COUNT>
0

> <PUBCHEM_BOND_UDEF_STEREO_COUNT>
0

> <PUBCHEM_ISOTOPIC_ATOM_COUNT>
0

> <PUBCHEM_COMPONENT_COUNT>
1

> <PUBCHEM_CACTVS_TAUTO_COUNT>
-1

> <PUBCHEM_COORDINATE_TYPE>
1
5
255

$$$$
