24458
  -OEChem-08152604312D

  3  2  0     0  0  0  0  0  0999 V2000
    2.8660   -0.2500    0.0000 Fe  0  0  0  0  0  0  0  0  0  0  0  0
    3.7321    0.2500    0.0000 Cl  0  0  0  0  0  0  0  0  0  0  0  0
    2.0000    0.2500    0.0000 Cl  0  0  0  0  0  0  0  0  0  0  0  0
  1  2  1  0  0  0  0
  1  3  1  0  0  0  0
M  END
> <PUBCHEM_COMPOUND_CID>
24458

> <PUBCHEM_COMPOUND_CANONICALIZED>
1

> <PUBCHEM_CACTVS_COMPLEXITY>
2.8

> <PUBCHEM_CACTVS_HBOND_ACCEPTOR>
0

> <PUBCHEM_CACTVS_HBOND_DONOR>
0

> <PUBCHEM_CACTVS_ROTATABLE_BOND>
0

> <PUBCHEM_CACTVS_SUBSKEYS>
AAADcQAAAAAGAAAgAAAAAAAAAAAAAAAAAAAAAAAAAAAAAAAAAAAAAAAAAAAAAAAAAAAAAAAAAAAAAAAAAAAAAAAAAAAAAAAAAAAAAAAAAAAAAAAAAAAAAAAAAAAAAAAAAAAAAAAAAAAAAAAAAAAAAAAAAA==

> <PUBCHEM_IUPAC_OPENEYE_NAME>
dichloroiron

> <PUBCHEM_IUPAC_CAS_NAME>
dichloroiron

> <PUBCHEM_IUPAC_NAME_MARKUP>
dichloroiron

> <PUBCHEM_IUPAC_NAME>
dichloroiron

> <PUBCHEM_IUPAC_SYSTEMATIC_NAME>
bis(chloranyl)iron

> <PUBCHEM_IUPAC_TRADITIONAL_NAME>
dichloroiron

> <PUBCHEM_IUPAC_INCHI>
InChI=1S/2ClH.Fe/h2*1H;/q;;+2/p-2

> <PUBCHEM_IUPAC_INCHIKEY>
NMCUIPGRVMDVDB-UHFFFAOYSA-L

> <PUBCHEM_EXACT_MASS>
125.872641

> <PUBCHEM_MOLECULAR_FORMULA>
Cl2Fe

> <PUBCHEM_MOLECULAR_WEIGHT>
126.75

> <PUBCHEM_SMILES>
Cl[Fe]Cl

> <PUBCHEM_CONNECTIVITY_SMILES>
Cl[Fe]Cl

> <PUBCHEM_CACTVS_TPSA>
0

> <PUBCHEM_MONOISOTOPIC_WEIGHT>
125.872641

> <PUBCHEM_TOTAL_CHARGE>
0

> <PUBCHEM_HEAVY_ATOM_COUNT>
3

> <PUBCHEM_ATOM_DEF_STEREO_COUNT>
0

> <PUBCHEM_ATOM_UDEF_STEREO_COUNT>
0

> <PUBCHEM_BOND_DEF_STEREO_COUNT>
0

> <PUBCHEM_BOND_UDEF_STEREO_COUNT>
0

> <PUBCHEM_ISOTOPIC_ATOM_COUNT>
0

> <PUBCHEM_COMPONENT_COUNT>
1

> <PUBCHEM_CACTVS_TAUTO_COUNT>
-1

> <PUBCHEM_COORDINATE_TYPE>
1
5
255

$$$$
