14828
  -OEChem-08152605022D

  2  1  0     0  0  0  0  0  0999 V2000
    3.0000    0.0000    0.0000 Fe  0  0  0  0  0  0  0  0  0  0  0  0
    2.0000    0.0000    0.0000 S   0  0  0  0  0  0  0  0  0  0  0  0
  1  2  2  0  0  0  0
M  END
> <PUBCHEM_COMPOUND_CID>
14828

> <PUBCHEM_COMPOUND_CANONICALIZED>
1

> <PUBCHEM_CACTVS_COMPLEXITY>
2

> <PUBCHEM_CACTVS_HBOND_ACCEPTOR>
1

> <PUBCHEM_CACTVS_HBOND_DONOR>
0

> <PUBCHEM_CACTVS_ROTATABLE_BOND>
0

> <PUBCHEM_CACTVS_SUBSKEYS>
AAADcQAAAABAAAAgAAAAAAAAAAAAAAAAAAAAAAAAAAAAAAAAAAAAAAAAAAAAAAAAAAAAAAAAAAAAAAAAAAAAAAAAAAAAAAAAAAAAAAAAAAAAAAAAAAAAAAAAAAAAAAAAAAAAAAAAAAAAAAAAAAAAAAAAAA==

> <PUBCHEM_IUPAC_OPENEYE_NAME>
thioxoiron

> <PUBCHEM_IUPAC_CAS_NAME>
sulfanylideneiron

> <PUBCHEM_IUPAC_NAME_MARKUP>
sulfanylideneiron

> <PUBCHEM_IUPAC_NAME>
sulfanylideneiron

> <PUBCHEM_IUPAC_SYSTEMATIC_NAME>
sulfanylideneiron

> <PUBCHEM_IUPAC_TRADITIONAL_NAME>
thioxoiron

> <PUBCHEM_IUPAC_INCHI>
InChI=1S/Fe.S

> <PUBCHEM_IUPAC_INCHIKEY>
MBMLMWLHJBBADN-UHFFFAOYSA-N

> <PUBCHEM_EXACT_MASS>
87.907007

> <PUBCHEM_MOLECULAR_FORMULA>
FeS

> <PUBCHEM_MOLECULAR_WEIGHT>
87.91

> <PUBCHEM_SMILES>
S=[Fe]

> <PUBCHEM_CONNECTIVITY_SMILES>
S=[Fe]

> <PUBCHEM_CACTVS_TPSA>
32.1

> <PUBCHEM_MONOISOTOPIC_WEIGHT>
87.907007

> <PUBCHEM_TOTAL_CHARGE>
0

> <PUBCHEM_HEAVY_ATOM_COUNT>
2

> <PUBCHEM_ATOM_DEF_STEREO_COUNT>
0

> <PUBCHEM_ATOM_UDEF_STEREO_COUNT>
0

> <PUBCHEM_BOND_DEF_STEREO_COUNT>
0

> <PUBCHEM_BOND_UDEF_STEREO_COUNT>
0

> <PUBCHEM_ISOTOPIC_ATOM_COUNT>
0

> <PUBCHEM_COMPONENT_COUNT>
1

> <PUBCHEM_CACTVS_TAUTO_COUNT>
-1

> <PUBCHEM_COORDINATE_TYPE>
1
5
255

$$$$
