14795
  -OEChem-08152604462D

  2  1  0     0  0  0  0  0  0999 V2000
    3.0000    0.0000    0.0000 Se  0  0  0  0  0  0  0  0  0  0  0  0
    2.0000    0.0000    0.0000 Fe  0  0  0  0  0  0  0  0  0  0  0  0
  1  2  2  0  0  0  0
M  END
> <PUBCHEM_COMPOUND_CID>
14795

> <PUBCHEM_COMPOUND_CANONICALIZED>
1

> <PUBCHEM_CACTVS_COMPLEXITY>
2

> <PUBCHEM_CACTVS_HBOND_ACCEPTOR>
0

> <PUBCHEM_CACTVS_HBOND_DONOR>
0

> <PUBCHEM_CACTVS_ROTATABLE_BOND>
0

> <PUBCHEM_CACTVS_SUBSKEYS>
AAADcQAAAAAAAAAgIAAAAAAAAAAAAAAAAAAAAAAAAAAAAAAAAAAAAAAAAAAAAAAAAAAAAAAAAAAAAAAAAAAAAAAAAAAAAAAAAAAAAAAAAAAAAAAAAAAAAAAAAAAAAAAAAAAAAAAAAAAAAAAAAAAAAAAAAA==

> <PUBCHEM_IUPAC_OPENEYE_NAME>
selenoxoiron

> <PUBCHEM_IUPAC_CAS_NAME>
selanylideneiron

> <PUBCHEM_IUPAC_NAME_MARKUP>
selanylideneiron

> <PUBCHEM_IUPAC_NAME>
selanylideneiron

> <PUBCHEM_IUPAC_SYSTEMATIC_NAME>
selanylideneiron

> <PUBCHEM_IUPAC_TRADITIONAL_NAME>
selenoxoiron

> <PUBCHEM_IUPAC_INCHI>
InChI=1S/Fe.Se

> <PUBCHEM_IUPAC_INCHIKEY>
WALCGGIJOOWJIN-UHFFFAOYSA-N

> <PUBCHEM_EXACT_MASS>
135.85146

> <PUBCHEM_MOLECULAR_FORMULA>
FeSe

> <PUBCHEM_MOLECULAR_WEIGHT>
134.82

> <PUBCHEM_SMILES>
[Fe]=[Se]

> <PUBCHEM_CONNECTIVITY_SMILES>
[Fe]=[Se]

> <PUBCHEM_CACTVS_TPSA>
0

> <PUBCHEM_MONOISOTOPIC_WEIGHT>
135.85146

> <PUBCHEM_TOTAL_CHARGE>
0

> <PUBCHEM_HEAVY_ATOM_COUNT>
2

> <PUBCHEM_ATOM_DEF_STEREO_COUNT>
0

> <PUBCHEM_ATOM_UDEF_STEREO_COUNT>
0

> <PUBCHEM_BOND_DEF_STEREO_COUNT>
0

> <PUBCHEM_BOND_UDEF_STEREO_COUNT>
0

> <PUBCHEM_ISOTOPIC_ATOM_COUNT>
0

> <PUBCHEM_COMPONENT_COUNT>
1

> <PUBCHEM_CACTVS_TAUTO_COUNT>
-1

> <PUBCHEM_COORDINATE_TYPE>
1
5
255

$$$$
