72668653
  -OEChem-08152606122D

  7  5  0     0  0  0  0  0  0999 V2000
    0.8845    0.0000    0.0000 Gd  0  0  0  0  0  0  0  0  0  0  0  0
    0.8660    3.3660    0.0000 Cl  0  0  0  0  0  0  0  0  0  0  0  0
    1.7320    3.8660    0.0000 O   0  0  0  0  0  0  0  0  0  0  0  0
    0.0000    2.8660    0.0000 O   0  0  0  0  0  0  0  0  0  0  0  0
    0.3660    4.2320    0.0000 O   0  0  0  0  0  0  0  0  0  0  0  0
    1.3660    2.5000    0.0000 O   0  0  0  0  0  0  0  0  0  0  0  0
    2.2690    3.5560    0.0000 H   0  0  0  0  0  0  0  0  0  0  0  0
  2  3  1  0  0  0  0
  2  4  2  0  0  0  0
  2  5  2  0  0  0  0
  2  6  2  0  0  0  0
  3  7  1  0  0  0  0
M  END
> <PUBCHEM_COMPOUND_CID>
72668653

> <PUBCHEM_COMPOUND_CANONICALIZED>
1

> <PUBCHEM_CACTVS_COMPLEXITY>
114

> <PUBCHEM_CACTVS_HBOND_ACCEPTOR>
4

> <PUBCHEM_CACTVS_HBOND_DONOR>
1

> <PUBCHEM_CACTVS_ROTATABLE_BOND>
0

> <PUBCHEM_CACTVS_SUBSKEYS>
AAADcQAAOAAEAAAAAAAAAAAgAAAAAAAAAAAAAAAAAAAAAAAAAAAAAAAACAAAAAAAAAAAAAAAAAAAAAAAAAAAAAAAAAAAAAAAAAAAAAAAAAAAAAAAAAAAAAAAAAAAAAAAAAAAAAAAAAAAAAAAAAAAAAAAAA==

> <PUBCHEM_IUPAC_OPENEYE_NAME>
gadolinium;perchloric acid

> <PUBCHEM_IUPAC_CAS_NAME>
gadolinium;perchloric acid

> <PUBCHEM_IUPAC_NAME_MARKUP>
gadolinium;perchloric acid

> <PUBCHEM_IUPAC_NAME>
gadolinium;perchloric acid

> <PUBCHEM_IUPAC_SYSTEMATIC_NAME>
gadolinium;perchloric acid

> <PUBCHEM_IUPAC_TRADITIONAL_NAME>
gadolinium;perchloric acid

> <PUBCHEM_IUPAC_INCHI>
InChI=1S/ClHO4.Gd/c2-1(3,4)5;/h(H,2,3,4,5);

> <PUBCHEM_IUPAC_INCHIKEY>
MCXIWUZGDDRYRZ-UHFFFAOYSA-N

> <PUBCHEM_EXACT_MASS>
257.88045

> <PUBCHEM_MOLECULAR_FORMULA>
ClGdHO4

> <PUBCHEM_MOLECULAR_WEIGHT>
257.71

> <PUBCHEM_SMILES>
OCl(=O)(=O)=O.[Gd]

> <PUBCHEM_CONNECTIVITY_SMILES>
OCl(=O)(=O)=O.[Gd]

> <PUBCHEM_CACTVS_TPSA>
71.4

> <PUBCHEM_MONOISOTOPIC_WEIGHT>
257.88045

> <PUBCHEM_TOTAL_CHARGE>
0

> <PUBCHEM_HEAVY_ATOM_COUNT>
6

> <PUBCHEM_ATOM_DEF_STEREO_COUNT>
0

> <PUBCHEM_ATOM_UDEF_STEREO_COUNT>
0

> <PUBCHEM_BOND_DEF_STEREO_COUNT>
0

> <PUBCHEM_BOND_UDEF_STEREO_COUNT>
0

> <PUBCHEM_ISOTOPIC_ATOM_COUNT>
0

> <PUBCHEM_COMPONENT_COUNT>
2

> <PUBCHEM_CACTVS_TAUTO_COUNT>
-1

> <PUBCHEM_COORDINATE_TYPE>
1
5
255

$$$$
