57346094
  -OEChem-08152605072D

 10  5  0     0  0  0  0  0  0999 V2000
    1.4030    1.3100    0.0000 Gd  0  1  0  0  0  0  0  0  0  0  0  0
    1.4030    3.8100    0.0000 O   0  0  0  0  0  0  0  0  0  0  0  0
    2.2690    1.8100    0.0000 O   0  5  0  0  0  0  0  0  0  0  0  0
    0.5369    1.8100    0.0000 O   0  5  0  0  0  0  0  0  0  0  0  0
    1.4030    0.3100    0.0000 O   0  5  0  0  0  0  0  0  0  0  0  0
    1.9399    4.1200    0.0000 H   0  0  0  0  0  0  0  0  0  0  0  0
    0.8660    4.1200    0.0000 H   0  0  0  0  0  0  0  0  0  0  0  0
    2.8059    1.5000    0.0000 H   0  0  0  0  0  0  0  0  0  0  0  0
    0.0000    1.5000    0.0000 H   0  0  0  0  0  0  0  0  0  0  0  0
    0.8660    0.0000    0.0000 H   0  0  0  0  0  0  0  0  0  0  0  0
  2  6  1  0  0  0  0
  2  7  1  0  0  0  0
  3  8  1  0  0  0  0
  4  9  1  0  0  0  0
  5 10  1  0  0  0  0
M  CHG  4   1   3   3  -1   4  -1   5  -1
M  END
> <PUBCHEM_COMPOUND_CID>
57346094

> <PUBCHEM_COMPOUND_CANONICALIZED>
1

> <PUBCHEM_CACTVS_COMPLEXITY>
0

> <PUBCHEM_CACTVS_HBOND_ACCEPTOR>
4

> <PUBCHEM_CACTVS_HBOND_DONOR>
4

> <PUBCHEM_CACTVS_ROTATABLE_BOND>
0

> <PUBCHEM_CACTVS_SUBSKEYS>
AAADcYAAOAAAAAAAAAAAAAAgAAAAAAAAAAAAAAAAAAAAAAAAAAAAAAAACAAAAAAAAAAAAAAAAAAAAAAAAAAAAAAAAAAAAAAAAAAAAAAAAAAAAAAAAAAAAAAAAAAAAAAAAAAAAAAAAAAAAAAAAAAAAAAAAA==

> <PUBCHEM_IUPAC_OPENEYE_NAME>
gadolinium(3+);trihydroxide;hydrate

> <PUBCHEM_IUPAC_CAS_NAME>
gadolinium(3+);trihydroxide;hydrate

> <PUBCHEM_IUPAC_NAME_MARKUP>
gadolinium(3+);trihydroxide;hydrate

> <PUBCHEM_IUPAC_NAME>
gadolinium(3+);trihydroxide;hydrate

> <PUBCHEM_IUPAC_SYSTEMATIC_NAME>
gadolinium(3+);trihydroxide;hydrate

> <PUBCHEM_IUPAC_TRADITIONAL_NAME>
gadolinium(3+);trihydroxide;hydrate

> <PUBCHEM_IUPAC_INCHI>
InChI=1S/Gd.4H2O/h;4*1H2/q+3;;;;/p-3

> <PUBCHEM_IUPAC_INCHIKEY>
XPLNUMUBAPCAEW-UHFFFAOYSA-K

> <PUBCHEM_EXACT_MASS>
226.94289

> <PUBCHEM_MOLECULAR_FORMULA>
GdH5O4

> <PUBCHEM_MOLECULAR_WEIGHT>
226.29

> <PUBCHEM_SMILES>
O.[OH-].[OH-].[OH-].[Gd+3]

> <PUBCHEM_CONNECTIVITY_SMILES>
O.[OH-].[OH-].[OH-].[Gd+3]

> <PUBCHEM_CACTVS_TPSA>
4

> <PUBCHEM_MONOISOTOPIC_WEIGHT>
226.94289

> <PUBCHEM_TOTAL_CHARGE>
0

> <PUBCHEM_HEAVY_ATOM_COUNT>
5

> <PUBCHEM_ATOM_DEF_STEREO_COUNT>
0

> <PUBCHEM_ATOM_UDEF_STEREO_COUNT>
0

> <PUBCHEM_BOND_DEF_STEREO_COUNT>
0

> <PUBCHEM_BOND_UDEF_STEREO_COUNT>
0

> <PUBCHEM_ISOTOPIC_ATOM_COUNT>
0

> <PUBCHEM_COMPONENT_COUNT>
5

> <PUBCHEM_CACTVS_TAUTO_COUNT>
-1

> <PUBCHEM_COORDINATE_TYPE>
1
5
255

$$$$
