61486
  -OEChem-08152607012D

  4  3  0     0  0  0  0  0  0999 V2000
    2.8660    0.2500    0.0000 Gd  0  0  0  0  0  0  0  0  0  0  0  0
    3.7321    0.7500    0.0000 Cl  0  0  0  0  0  0  0  0  0  0  0  0
    2.0000    0.7500    0.0000 Cl  0  0  0  0  0  0  0  0  0  0  0  0
    2.8660   -0.7500    0.0000 Cl  0  0  0  0  0  0  0  0  0  0  0  0
  1  2  1  0  0  0  0
  1  3  1  0  0  0  0
  1  4  1  0  0  0  0
M  END
> <PUBCHEM_COMPOUND_CID>
61486

> <PUBCHEM_COMPOUND_CANONICALIZED>
1

> <PUBCHEM_CACTVS_COMPLEXITY>
8

> <PUBCHEM_CACTVS_HBOND_ACCEPTOR>
0

> <PUBCHEM_CACTVS_HBOND_DONOR>
0

> <PUBCHEM_CACTVS_ROTATABLE_BOND>
0

> <PUBCHEM_CACTVS_SUBSKEYS>
AAADcQAAAAAGAAAAAAAAAAAgAAAAAAAAAAAAAAAAAAAAAAAAAAAAAAAAAAAAAAAAAAAAAAAAAAAAAAAAAAAAAAAAAAAAAAAAAAAAAAAAAAAAAAAAAAAAAAAAAAAAAAAAAAAAAAAAAAAAAAAAAAAAAAAAAA==

> <PUBCHEM_IUPAC_OPENEYE_NAME>
trichlorogadolinium

> <PUBCHEM_IUPAC_CAS_NAME>
trichlorogadolinium

> <PUBCHEM_IUPAC_NAME_MARKUP>
trichlorogadolinium

> <PUBCHEM_IUPAC_NAME>
trichlorogadolinium

> <PUBCHEM_IUPAC_SYSTEMATIC_NAME>
tris(chloranyl)gadolinium

> <PUBCHEM_IUPAC_TRADITIONAL_NAME>
trichlorogadolinium

> <PUBCHEM_IUPAC_INCHI>
InChI=1S/3ClH.Gd/h3*1H;/q;;;+3/p-3

> <PUBCHEM_IUPAC_INCHIKEY>
MEANOSLIBWSCIT-UHFFFAOYSA-K

> <PUBCHEM_EXACT_MASS>
262.83067

> <PUBCHEM_MOLECULAR_FORMULA>
Cl3Gd

> <PUBCHEM_MOLECULAR_WEIGHT>
263.60

> <PUBCHEM_SMILES>
Cl[Gd](Cl)Cl

> <PUBCHEM_CONNECTIVITY_SMILES>
Cl[Gd](Cl)Cl

> <PUBCHEM_CACTVS_TPSA>
0

> <PUBCHEM_MONOISOTOPIC_WEIGHT>
262.83067

> <PUBCHEM_TOTAL_CHARGE>
0

> <PUBCHEM_HEAVY_ATOM_COUNT>
4

> <PUBCHEM_ATOM_DEF_STEREO_COUNT>
0

> <PUBCHEM_ATOM_UDEF_STEREO_COUNT>
0

> <PUBCHEM_BOND_DEF_STEREO_COUNT>
0

> <PUBCHEM_BOND_UDEF_STEREO_COUNT>
0

> <PUBCHEM_ISOTOPIC_ATOM_COUNT>
0

> <PUBCHEM_COMPONENT_COUNT>
1

> <PUBCHEM_CACTVS_TAUTO_COUNT>
-1

> <PUBCHEM_COORDINATE_TYPE>
1
5
255

$$$$
