131873664
  -OEChem-08152607172D

 43 39  0     0  0  0  0  0  0999 V2000
    3.8508   -0.0725    0.0000 Gd  0  1  0  0  0  0  0  0  0  0  0  0
    2.9848    0.4275    0.0000 O   0  0  0  0  0  0  0  0  0  0  0  0
    2.9848   -0.5725    0.0000 O   0  0  0  0  0  0  0  0  0  0  0  0
    2.9848   -0.5725    0.0000 O   0  0  0  0  0  0  0  0  0  0  0  0
    4.7169   -0.5725    0.0000 O   0  0  0  0  0  0  0  0  0  0  0  0
    4.7169    0.4275    0.0000 O   0  0  0  0  0  0  0  0  0  0  0  0
    4.7169   -0.5725    0.0000 O   0  0  0  0  0  0  0  0  0  0  0  0
    2.9848    1.4275    0.0000 C   0  0  0  0  0  0  0  0  0  0  0  0
    2.9848   -1.5725    0.0000 C   0  0  0  0  0  0  0  0  0  0  0  0
    2.9848   -1.5725    0.0000 C   0  0  0  0  0  0  0  0  0  0  0  0
    4.7169   -1.5725    0.0000 C   0  0  0  0  0  0  0  0  0  0  0  0
    4.7169    1.4275    0.0000 C   0  0  0  0  0  0  0  0  0  0  0  0
    4.7169   -1.5725    0.0000 C   0  0  0  0  0  0  0  0  0  0  0  0
    3.8508    1.9275    0.0000 C   0  5  0  0  0  0  0  0  0  0  0  0
    3.8508   -2.0725    0.0000 C   0  5  0  0  0  0  0  0  0  0  0  0
    3.8508   -2.0725    0.0000 C   0  5  0  0  0  0  0  0  0  0  0  0
    2.1188    1.9275    0.0000 C   0  0  0  0  0  0  0  0  0  0  0  0
    2.6428   -2.5122    0.0000 C   0  0  0  0  0  0  0  0  0  0  0  0
    2.0000   -1.3988    0.0000 C   0  0  0  0  0  0  0  0  0  0  0  0
    5.0589   -2.5122    0.0000 C   0  0  0  0  0  0  0  0  0  0  0  0
    5.5829    1.9275    0.0000 C   0  0  0  0  0  0  0  0  0  0  0  0
    5.7017   -1.3989    0.0000 C   0  0  0  0  0  0  0  0  0  0  0  0
    3.8508    2.5475    0.0000 H   0  0  0  0  0  0  0  0  0  0  0  0
    3.4524   -2.5475    0.0000 H   0  0  0  0  0  0  0  0  0  0  0  0
    4.2494   -2.5474    0.0000 H   0  0  0  0  0  0  0  0  0  0  0  0
    2.4288    2.4644    0.0000 H   0  0  0  0  0  0  0  0  0  0  0  0
    1.5818    2.2375    0.0000 H   0  0  0  0  0  0  0  0  0  0  0  0
    1.8088    1.3906    0.0000 H   0  0  0  0  0  0  0  0  0  0  0  0
    2.0602   -2.3001    0.0000 H   0  0  0  0  0  0  0  0  0  0  0  0
    2.4307   -3.0948    0.0000 H   0  0  0  0  0  0  0  0  0  0  0  0
    3.2254   -2.7243    0.0000 H   0  0  0  0  0  0  0  0  0  0  0  0
    2.1077   -0.7882    0.0000 H   0  0  0  0  0  0  0  0  0  0  0  0
    1.3894   -1.2911    0.0000 H   0  0  0  0  0  0  0  0  0  0  0  0
    1.8923   -2.0094    0.0000 H   0  0  0  0  0  0  0  0  0  0  0  0
    4.4763   -2.7242    0.0000 H   0  0  0  0  0  0  0  0  0  0  0  0
    5.2709   -3.0948    0.0000 H   0  0  0  0  0  0  0  0  0  0  0  0
    5.6415   -2.3001    0.0000 H   0  0  0  0  0  0  0  0  0  0  0  0
    5.8929    1.3906    0.0000 H   0  0  0  0  0  0  0  0  0  0  0  0
    6.1198    2.2375    0.0000 H   0  0  0  0  0  0  0  0  0  0  0  0
    5.2729    2.4644    0.0000 H   0  0  0  0  0  0  0  0  0  0  0  0
    5.8093   -2.0094    0.0000 H   0  0  0  0  0  0  0  0  0  0  0  0
    6.3122   -1.2912    0.0000 H   0  0  0  0  0  0  0  0  0  0  0  0
    5.5940   -0.7883    0.0000 H   0  0  0  0  0  0  0  0  0  0  0  0
  2  8  2  0  0  0  0
  3  9  2  0  0  0  0
  4 10  2  0  0  0  0
  5 11  2  0  0  0  0
  6 12  2  0  0  0  0
  7 13  2  0  0  0  0
  8 14  1  0  0  0  0
  8 17  1  0  0  0  0
  9 15  1  0  0  0  0
  9 18  1  0  0  0  0
 10 16  1  0  0  0  0
 10 19  1  0  0  0  0
 11 16  1  0  0  0  0
 11 20  1  0  0  0  0
 12 14  1  0  0  0  0
 12 21  1  0  0  0  0
 13 15  1  0  0  0  0
 13 22  1  0  0  0  0
 14 23  1  0  0  0  0
 15 24  1  0  0  0  0
 16 25  1  0  0  0  0
 17 26  1  0  0  0  0
 17 27  1  0  0  0  0
 17 28  1  0  0  0  0
 18 29  1  0  0  0  0
 18 30  1  0  0  0  0
 18 31  1  0  0  0  0
 19 32  1  0  0  0  0
 19 33  1  0  0  0  0
 19 34  1  0  0  0  0
 20 35  1  0  0  0  0
 20 36  1  0  0  0  0
 20 37  1  0  0  0  0
 21 38  1  0  0  0  0
 21 39  1  0  0  0  0
 21 40  1  0  0  0  0
 22 41  1  0  0  0  0
 22 42  1  0  0  0  0
 22 43  1  0  0  0  0
M  CHG  4   1   3  14  -1  15  -1  16  -1
M  END
> <PUBCHEM_COMPOUND_CID>
131873664

> <PUBCHEM_COMPOUND_CANONICALIZED>
1

> <PUBCHEM_CACTVS_COMPLEXITY>
314

> <PUBCHEM_CACTVS_HBOND_ACCEPTOR>
9

> <PUBCHEM_CACTVS_HBOND_DONOR>
0

> <PUBCHEM_CACTVS_ROTATABLE_BOND>
0

> <PUBCHEM_CACTVS_SUBSKEYS>
AAADceBwOAAAAAAAAAAAAAAgAAAAAAAAAAAgQIAAAAAAAAAAAAAAGgAAAAAACASAgAACAAAAAAAIAIAQAAAAAAAAAAAAAAEAAAAAABIIAAAAAAAAAAAAAAAAAAAAAAAAAAAAAAAAAAAAAAAAAAAAAAAAAA==

> <PUBCHEM_IUPAC_OPENEYE_NAME>
gadolinium(3+);tris(pentane-2,4-dione)

> <PUBCHEM_IUPAC_CAS_NAME>
gadolinium(3+);tris(pentane-2,4-dione)

> <PUBCHEM_IUPAC_NAME_MARKUP>
gadolinium(3+);tris(pentane-2,4-dione)

> <PUBCHEM_IUPAC_NAME>
gadolinium(3+);tris(pentane-2,4-dione)

> <PUBCHEM_IUPAC_SYSTEMATIC_NAME>
gadolinium(3+);tris(pentane-2,4-dione)

> <PUBCHEM_IUPAC_TRADITIONAL_NAME>
gadolinium(3+);tris(pentane-2,4-dione)

> <PUBCHEM_IUPAC_INCHI>
InChI=1S/3C5H7O2.Gd/c3*1-4(6)3-5(2)7;/h3*3H,1-2H3;/q3*-1;+3

> <PUBCHEM_IUPAC_INCHIKEY>
PJCXQIZIMGZZIT-UHFFFAOYSA-N

> <PUBCHEM_EXACT_MASS>
455.05792

> <PUBCHEM_MOLECULAR_FORMULA>
C15H21GdO6

> <PUBCHEM_MOLECULAR_WEIGHT>
454.57

> <PUBCHEM_SMILES>
CC(=O)[CH-]C(=O)C.CC(=O)[CH-]C(=O)C.CC(=O)[CH-]C(=O)C.[Gd+3]

> <PUBCHEM_CONNECTIVITY_SMILES>
CC(=O)[CH-]C(=O)C.CC(=O)[CH-]C(=O)C.CC(=O)[CH-]C(=O)C.[Gd+3]

> <PUBCHEM_CACTVS_TPSA>
102

> <PUBCHEM_MONOISOTOPIC_WEIGHT>
455.05792

> <PUBCHEM_TOTAL_CHARGE>
0

> <PUBCHEM_HEAVY_ATOM_COUNT>
22

> <PUBCHEM_ATOM_DEF_STEREO_COUNT>
0

> <PUBCHEM_ATOM_UDEF_STEREO_COUNT>
0

> <PUBCHEM_BOND_DEF_STEREO_COUNT>
0

> <PUBCHEM_BOND_UDEF_STEREO_COUNT>
0

> <PUBCHEM_ISOTOPIC_ATOM_COUNT>
0

> <PUBCHEM_COMPONENT_COUNT>
4

> <PUBCHEM_CACTVS_TAUTO_COUNT>
-1

> <PUBCHEM_NONSTANDARDBOND>
1  2  6
1  3  6
1  4  6
1  5  6
1  6  6
1  7  6

> <PUBCHEM_COORDINATE_TYPE>
1
5
255

$$$$
