82901
  -OEChem-08152607402D

  2  1  0     0  0  0  0  0  0999 V2000
    3.0000    0.0000    0.0000 Ga  0  0  0  0  0  0  0  0  0  0  0  0
    2.0000    0.0000    0.0000 P   0  0  0  0  0  0  0  0  0  0  0  0
  1  2  3  0  0  0  0
M  END
> <PUBCHEM_COMPOUND_CID>
82901

> <PUBCHEM_COMPOUND_CANONICALIZED>
1

> <PUBCHEM_CACTVS_COMPLEXITY>
10

> <PUBCHEM_CACTVS_HBOND_ACCEPTOR>
0

> <PUBCHEM_CACTVS_HBOND_DONOR>
0

> <PUBCHEM_CACTVS_ROTATABLE_BOND>
0

> <PUBCHEM_CACTVS_SUBSKEYS>
AAADcQAAAAIAAAABAAAAAAAAAAAAAAAAAAAAAAAAAAAAAAAAAAAAAAAAAAAAAAAAAAAAAAAAAAAAAAAAAAAAAAAAAAAAAAAAAAAAAAAAAAAAAAAAAAAAAAAAAAAAAAAAAAAAAAAAAAAAAAAAAAAAAAAAAA==

> <PUBCHEM_IUPAC_OPENEYE_NAME>
gallanylidynephosphane

> <PUBCHEM_IUPAC_CAS_NAME>
gallanylidynephosphine

> <PUBCHEM_IUPAC_NAME_MARKUP>
gallanylidynephosphane

> <PUBCHEM_IUPAC_NAME>
gallanylidynephosphane

> <PUBCHEM_IUPAC_SYSTEMATIC_NAME>
gallanylidynephosphane

> <PUBCHEM_IUPAC_TRADITIONAL_NAME>
gallanylidynephosphine

> <PUBCHEM_IUPAC_INCHI>
InChI=1S/Ga.P

> <PUBCHEM_IUPAC_INCHIKEY>
HZXMRANICFIONG-UHFFFAOYSA-N

> <PUBCHEM_EXACT_MASS>
99.89934

> <PUBCHEM_MOLECULAR_FORMULA>
GaP

> <PUBCHEM_MOLECULAR_WEIGHT>
100.697

> <PUBCHEM_SMILES>
P#[Ga]

> <PUBCHEM_CONNECTIVITY_SMILES>
P#[Ga]

> <PUBCHEM_CACTVS_TPSA>
0

> <PUBCHEM_MONOISOTOPIC_WEIGHT>
99.89934

> <PUBCHEM_TOTAL_CHARGE>
0

> <PUBCHEM_HEAVY_ATOM_COUNT>
2

> <PUBCHEM_ATOM_DEF_STEREO_COUNT>
0

> <PUBCHEM_ATOM_UDEF_STEREO_COUNT>
0

> <PUBCHEM_BOND_DEF_STEREO_COUNT>
0

> <PUBCHEM_BOND_UDEF_STEREO_COUNT>
0

> <PUBCHEM_ISOTOPIC_ATOM_COUNT>
0

> <PUBCHEM_COMPONENT_COUNT>
1

> <PUBCHEM_CACTVS_TAUTO_COUNT>
-1

> <PUBCHEM_COORDINATE_TYPE>
1
5
255

$$$$
