117559
  -OEChem-08152607162D

  2  1  0     0  0  0  0  0  0999 V2000
    3.0000    0.0000    0.0000 Ga  0  0  0  0  0  0  0  0  0  0  0  0
    2.0000    0.0000    0.0000 N   0  0  0  0  0  0  0  0  0  0  0  0
  1  2  3  0  0  0  0
M  END
> <PUBCHEM_COMPOUND_CID>
117559

> <PUBCHEM_COMPOUND_CANONICALIZED>
1

> <PUBCHEM_CACTVS_COMPLEXITY>
10

> <PUBCHEM_CACTVS_HBOND_ACCEPTOR>
1

> <PUBCHEM_CACTVS_HBOND_DONOR>
0

> <PUBCHEM_CACTVS_ROTATABLE_BOND>
0

> <PUBCHEM_CACTVS_SUBSKEYS>
AAADcQACAAAAAAABAAAAAAAAAAAAAAAAAAAAAAAAAAAAAAAAAAAAAAAAAAAAAAAAAAAAAAAAAAAAAAAAAAAAAAAAAAAAAAAAAAAAAAAAAAAAAAAAAAAAAAAAAAAAAAAAAAAAAAAAAAAAAAAAAAAAAAAAAA==

> <PUBCHEM_IUPAC_OPENEYE_NAME>
nitridogallane

> <PUBCHEM_IUPAC_CAS_NAME>
nitrilogallane

> <PUBCHEM_IUPAC_NAME_MARKUP>
azanylidynegallane

> <PUBCHEM_IUPAC_NAME>
azanylidynegallane

> <PUBCHEM_IUPAC_SYSTEMATIC_NAME>
azanylidynegallane

> <PUBCHEM_IUPAC_TRADITIONAL_NAME>
nitrilogallane

> <PUBCHEM_IUPAC_INCHI>
InChI=1S/Ga.N

> <PUBCHEM_IUPAC_INCHIKEY>
JMASRVWKEDWRBT-UHFFFAOYSA-N

> <PUBCHEM_EXACT_MASS>
82.92865

> <PUBCHEM_MOLECULAR_FORMULA>
GaN

> <PUBCHEM_MOLECULAR_WEIGHT>
83.730

> <PUBCHEM_SMILES>
N#[Ga]

> <PUBCHEM_CONNECTIVITY_SMILES>
N#[Ga]

> <PUBCHEM_CACTVS_TPSA>
23.8

> <PUBCHEM_MONOISOTOPIC_WEIGHT>
82.92865

> <PUBCHEM_TOTAL_CHARGE>
0

> <PUBCHEM_HEAVY_ATOM_COUNT>
2

> <PUBCHEM_ATOM_DEF_STEREO_COUNT>
0

> <PUBCHEM_ATOM_UDEF_STEREO_COUNT>
0

> <PUBCHEM_BOND_DEF_STEREO_COUNT>
0

> <PUBCHEM_BOND_UDEF_STEREO_COUNT>
0

> <PUBCHEM_ISOTOPIC_ATOM_COUNT>
0

> <PUBCHEM_COMPONENT_COUNT>
1

> <PUBCHEM_CACTVS_TAUTO_COUNT>
-1

> <PUBCHEM_COORDINATE_TYPE>
1
5
255

$$$$
