83477
  -OEChem-08152604252D

  4  3  0     0  0  0  0  0  0999 V2000
    3.7321    0.7500    0.0000 Br  0  0  0  0  0  0  0  0  0  0  0  0
    2.0000    0.7500    0.0000 Br  0  0  0  0  0  0  0  0  0  0  0  0
    2.8660   -0.7500    0.0000 Br  0  0  0  0  0  0  0  0  0  0  0  0
    2.8660    0.2500    0.0000 Ga  0  0  0  0  0  0  0  0  0  0  0  0
  1  4  1  0  0  0  0
  2  4  1  0  0  0  0
  3  4  1  0  0  0  0
M  END
> <PUBCHEM_COMPOUND_CID>
83477

> <PUBCHEM_COMPOUND_CANONICALIZED>
1

> <PUBCHEM_CACTVS_COMPLEXITY>
8

> <PUBCHEM_CACTVS_HBOND_ACCEPTOR>
0

> <PUBCHEM_CACTVS_HBOND_DONOR>
0

> <PUBCHEM_CACTVS_ROTATABLE_BOND>
0

> <PUBCHEM_CACTVS_SUBSKEYS>
AAADcQAAAAAAGAABAAAAAAAAAAAAAAAAAAAAAAAAAAAAAAAAAAAAAAAAAAAAAAAAAAAAAAAAAAAAAAAAAAAAAAAAAAAAAAAAAAAAAAAAAAAAAAAAAAAAAAAAAAAAAAAAAAAAAAAAAAAAAAAAAAAAAAAAAA==

> <PUBCHEM_IUPAC_OPENEYE_NAME>
tribromogallane

> <PUBCHEM_IUPAC_CAS_NAME>
tribromogallane

> <PUBCHEM_IUPAC_NAME_MARKUP>
tribromogallane

> <PUBCHEM_IUPAC_NAME>
tribromogallane

> <PUBCHEM_IUPAC_SYSTEMATIC_NAME>
tris(bromanyl)gallane

> <PUBCHEM_IUPAC_TRADITIONAL_NAME>
tribromogallane

> <PUBCHEM_IUPAC_INCHI>
InChI=1S/3BrH.Ga/h3*1H;/q;;;+3/p-3

> <PUBCHEM_IUPAC_INCHIKEY>
SRVXDMYFQIODQI-UHFFFAOYSA-K

> <PUBCHEM_EXACT_MASS>
307.67854

> <PUBCHEM_MOLECULAR_FORMULA>
Br3Ga

> <PUBCHEM_MOLECULAR_WEIGHT>
309.44

> <PUBCHEM_SMILES>
[Ga](Br)(Br)Br

> <PUBCHEM_CONNECTIVITY_SMILES>
[Ga](Br)(Br)Br

> <PUBCHEM_CACTVS_TPSA>
0

> <PUBCHEM_MONOISOTOPIC_WEIGHT>
305.68059

> <PUBCHEM_TOTAL_CHARGE>
0

> <PUBCHEM_HEAVY_ATOM_COUNT>
4

> <PUBCHEM_ATOM_DEF_STEREO_COUNT>
0

> <PUBCHEM_ATOM_UDEF_STEREO_COUNT>
0

> <PUBCHEM_BOND_DEF_STEREO_COUNT>
0

> <PUBCHEM_BOND_UDEF_STEREO_COUNT>
0

> <PUBCHEM_ISOTOPIC_ATOM_COUNT>
0

> <PUBCHEM_COMPONENT_COUNT>
1

> <PUBCHEM_CACTVS_TAUTO_COUNT>
-1

> <PUBCHEM_COORDINATE_TYPE>
1
5
255

$$$$
