165984
  -OEChem-08152604542D

  3  2  0     0  0  0  0  0  0999 V2000
    2.0000   -0.2500    0.0000 Se  0  0  0  0  0  0  0  0  0  0  0  0
    2.8660    0.2500    0.0000 Ga  0  0  0  0  0  0  0  0  0  0  0  0
    3.4030   -0.0600    0.0000 H   0  0  0  0  0  0  0  0  0  0  0  0
  1  2  2  0  0  0  0
  2  3  1  0  0  0  0
M  END
> <PUBCHEM_COMPOUND_CID>
165984

> <PUBCHEM_COMPOUND_CANONICALIZED>
1

> <PUBCHEM_CACTVS_COMPLEXITY>
2

> <PUBCHEM_CACTVS_HBOND_ACCEPTOR>
0

> <PUBCHEM_CACTVS_HBOND_DONOR>
0

> <PUBCHEM_CACTVS_ROTATABLE_BOND>
0

> <PUBCHEM_CACTVS_SUBSKEYS>
AAADcQAAAAAAAAABIAAAAAAAAAAAAAAAAAAAAAAAAAAAAAAAAAAAAAAAAAAAAAAAAAAAAAAAAAAAAAAAAAAAAAAAAAAAAAAAAAAAAAAAAAAAAAAAAAAAAAAAAAAAAAAAAAAAAAAAAAAAAAAAAAAAAAAAAA==

> <PUBCHEM_IUPAC_OPENEYE_NAME>
selenoxogallane

> <PUBCHEM_IUPAC_CAS_NAME>
selanylidenegallane

> <PUBCHEM_IUPAC_NAME_MARKUP>
selanylidenegallane

> <PUBCHEM_IUPAC_NAME>
selanylidenegallane

> <PUBCHEM_IUPAC_SYSTEMATIC_NAME>
selanylidenegallane

> <PUBCHEM_IUPAC_TRADITIONAL_NAME>
selenoxogallane

> <PUBCHEM_IUPAC_INCHI>
InChI=1S/Ga.Se.H

> <PUBCHEM_IUPAC_INCHIKEY>
HDBJXFMVKCGIKP-UHFFFAOYSA-N

> <PUBCHEM_EXACT_MASS>
149.84992

> <PUBCHEM_MOLECULAR_FORMULA>
GaHSe

> <PUBCHEM_MOLECULAR_WEIGHT>
149.70

> <PUBCHEM_SMILES>
[GaH]=[Se]

> <PUBCHEM_CONNECTIVITY_SMILES>
[GaH]=[Se]

> <PUBCHEM_CACTVS_TPSA>
0

> <PUBCHEM_MONOISOTOPIC_WEIGHT>
149.84992

> <PUBCHEM_TOTAL_CHARGE>
0

> <PUBCHEM_HEAVY_ATOM_COUNT>
2

> <PUBCHEM_ATOM_DEF_STEREO_COUNT>
0

> <PUBCHEM_ATOM_UDEF_STEREO_COUNT>
0

> <PUBCHEM_BOND_DEF_STEREO_COUNT>
0

> <PUBCHEM_BOND_UDEF_STEREO_COUNT>
0

> <PUBCHEM_ISOTOPIC_ATOM_COUNT>
0

> <PUBCHEM_COMPONENT_COUNT>
1

> <PUBCHEM_CACTVS_TAUTO_COUNT>
-1

> <PUBCHEM_COORDINATE_TYPE>
1
5
255

$$$$
