14420646
  -OEChem-08152607222D

  6  4  0     0  0  0  0  0  0999 V2000
    0.8660    0.0000    0.0000 Ga  0  4  0  0  0  0  0  0  0  0  0  0
    0.8660    2.5000    0.0000 Ga  0  4  0  0  0  0  0  0  0  0  0  0
    1.7321    0.5000    0.0000 Cl  0  0  0  0  0  0  0  0  0  0  0  0
    0.0000    0.5000    0.0000 Cl  0  0  0  0  0  0  0  0  0  0  0  0
    1.7321    3.0000    0.0000 Cl  0  0  0  0  0  0  0  0  0  0  0  0
    0.0000    3.0000    0.0000 Cl  0  0  0  0  0  0  0  0  0  0  0  0
  1  3  1  0  0  0  0
  1  4  1  0  0  0  0
  2  5  1  0  0  0  0
  2  6  1  0  0  0  0
M  RAD  2   1   2   2   2
M  END
> <PUBCHEM_COMPOUND_CID>
14420646

> <PUBCHEM_COMPOUND_CANONICALIZED>
1

> <PUBCHEM_CACTVS_COMPLEXITY>
2.8

> <PUBCHEM_CACTVS_HBOND_ACCEPTOR>
0

> <PUBCHEM_CACTVS_HBOND_DONOR>
0

> <PUBCHEM_CACTVS_ROTATABLE_BOND>
0

> <PUBCHEM_CACTVS_SUBSKEYS>
AAADcQAAAAAHAAABAAAAAAAAAAAAAAAAAAAAAAAAAAAAAAAAAAAAAAAAAAAAAAAAAAAAAAAAAAAAAAAAAAAAAAAAAAAAAAAAAAAAAAAAAAAAAAAAAAAAAAAAAAAAAAAAAAAAAAAAAAAAAAAAAAAAAAAAAA==

> <PUBCHEM_IUPAC_INCHI>
InChI=1S/4ClH.2Ga/h4*1H;;/q;;;;2*+2/p-4

> <PUBCHEM_IUPAC_INCHIKEY>
PWAPABRPCBSKKS-UHFFFAOYSA-J

> <PUBCHEM_EXACT_MASS>
281.72274

> <PUBCHEM_MOLECULAR_FORMULA>
Cl4Ga2

> <PUBCHEM_MOLECULAR_WEIGHT>
281.3

> <PUBCHEM_SMILES>
Cl[Ga]Cl.Cl[Ga]Cl

> <PUBCHEM_CONNECTIVITY_SMILES>
Cl[Ga]Cl.Cl[Ga]Cl

> <PUBCHEM_CACTVS_TPSA>
0

> <PUBCHEM_MONOISOTOPIC_WEIGHT>
277.72656

> <PUBCHEM_TOTAL_CHARGE>
0

> <PUBCHEM_HEAVY_ATOM_COUNT>
6

> <PUBCHEM_ATOM_DEF_STEREO_COUNT>
0

> <PUBCHEM_ATOM_UDEF_STEREO_COUNT>
0

> <PUBCHEM_BOND_DEF_STEREO_COUNT>
0

> <PUBCHEM_BOND_UDEF_STEREO_COUNT>
0

> <PUBCHEM_ISOTOPIC_ATOM_COUNT>
0

> <PUBCHEM_COMPONENT_COUNT>
2

> <PUBCHEM_CACTVS_TAUTO_COUNT>
-1

> <PUBCHEM_COORDINATE_TYPE>
1
5
255

$$$$
