16684827
  -OEChem-08152606062D

  5  4  0     0  0  0  0  0  0999 V2000
    4.5981    0.2500    0.0000 Ga  0  0  0  0  0  0  0  0  0  0  0  0
    2.8660    0.2500    0.0000 Ga  0  0  0  0  0  0  0  0  0  0  0  0
    3.7320   -0.2500    0.0000 S   0  0  0  0  0  0  0  0  0  0  0  0
    5.4641   -0.2500    0.0000 S   0  0  0  0  0  0  0  0  0  0  0  0
    2.0000   -0.2500    0.0000 S   0  0  0  0  0  0  0  0  0  0  0  0
  1  3  1  0  0  0  0
  1  4  2  0  0  0  0
  2  3  1  0  0  0  0
  2  5  2  0  0  0  0
M  END
> <PUBCHEM_COMPOUND_CID>
16684827

> <PUBCHEM_COMPOUND_CANONICALIZED>
1

> <PUBCHEM_CACTVS_COMPLEXITY>
34.2

> <PUBCHEM_CACTVS_HBOND_ACCEPTOR>
3

> <PUBCHEM_CACTVS_HBOND_DONOR>
0

> <PUBCHEM_CACTVS_ROTATABLE_BOND>
0

> <PUBCHEM_CACTVS_SUBSKEYS>
AAADcQAAAABgAAABAAAAAAAAAAAAAAAAAAAAAAAAAAAAAAAAAAAAAAAAAAAAAAAAAAAAAAAAAAAAAAAAAAAAAAAAAAAAAAAAAAAAAAAAAAAAAAAAAAAAAAAAAAAAAAAAAAAAAAAAAAAAAAAAAAAAAAAAAA==

> <PUBCHEM_IUPAC_OPENEYE_NAME>
thioxo(thioxogallanylsulfanyl)gallane

> <PUBCHEM_IUPAC_CAS_NAME>
sulfanylidene-(sulfanylidenegallanylthio)gallane

> <PUBCHEM_IUPAC_NAME_MARKUP>
sulfanylidene(sulfanylidenegallanylsulfanyl)gallane

> <PUBCHEM_IUPAC_NAME>
sulfanylidene(sulfanylidenegallanylsulfanyl)gallane

> <PUBCHEM_IUPAC_SYSTEMATIC_NAME>
sulfanylidene(sulfanylidenegallanylsulfanyl)gallane

> <PUBCHEM_IUPAC_TRADITIONAL_NAME>
thioxo-(thioxogallanylthio)gallane

> <PUBCHEM_IUPAC_INCHI>
InChI=1S/2Ga.3S

> <PUBCHEM_IUPAC_INCHIKEY>
RCKBMGHMPOIFND-UHFFFAOYSA-N

> <PUBCHEM_EXACT_MASS>
235.76649

> <PUBCHEM_MOLECULAR_FORMULA>
Ga2S3

> <PUBCHEM_MOLECULAR_WEIGHT>
235.6

> <PUBCHEM_SMILES>
S=[Ga]S[Ga]=S

> <PUBCHEM_CONNECTIVITY_SMILES>
S=[Ga]S[Ga]=S

> <PUBCHEM_CACTVS_TPSA>
89.5

> <PUBCHEM_MONOISOTOPIC_WEIGHT>
233.76736

> <PUBCHEM_TOTAL_CHARGE>
0

> <PUBCHEM_HEAVY_ATOM_COUNT>
5

> <PUBCHEM_ATOM_DEF_STEREO_COUNT>
0

> <PUBCHEM_ATOM_UDEF_STEREO_COUNT>
0

> <PUBCHEM_BOND_DEF_STEREO_COUNT>
0

> <PUBCHEM_BOND_UDEF_STEREO_COUNT>
0

> <PUBCHEM_ISOTOPIC_ATOM_COUNT>
0

> <PUBCHEM_COMPONENT_COUNT>
1

> <PUBCHEM_CACTVS_TAUTO_COUNT>
-1

> <PUBCHEM_COORDINATE_TYPE>
1
5
255

$$$$
