14496722
  -OEChem-08152605562D

  2  1  0     0  0  0  0  0  0999 V2000
    3.0000    0.0000    0.0000 Te  0  0  0  0  0  0  0  0  0  0  0  0
    2.0000    0.0000    0.0000 Ga  0  4  0  0  0  0  0  0  0  0  0  0
  1  2  2  0  0  0  0
M  RAD  1   2   2
M  END
> <PUBCHEM_COMPOUND_CID>
14496722

> <PUBCHEM_COMPOUND_CANONICALIZED>
1

> <PUBCHEM_CACTVS_COMPLEXITY>
2

> <PUBCHEM_CACTVS_HBOND_ACCEPTOR>
0

> <PUBCHEM_CACTVS_HBOND_DONOR>
0

> <PUBCHEM_CACTVS_ROTATABLE_BOND>
0

> <PUBCHEM_CACTVS_SUBSKEYS>
AAADcQAAAAAAAAABAAAgAAAAAAAAAAAAAAAAAAAAAAAAAAAAAAAAAAAAAAAAAAAAAAAAAAAAAAAAAAAAAAAAAAAAAAAAAAAAAAAAAAAAAAAAAAAAAAAAAAAAAAAAAAAAAAAAAAAAAAAAAAAAAAAAAAAAAA==

> <PUBCHEM_IUPAC_OPENEYE_NAME>
telluroxogallium

> <PUBCHEM_IUPAC_CAS_NAME>
tellanylidenegallium

> <PUBCHEM_IUPAC_NAME_MARKUP>
tellanylidenegallium

> <PUBCHEM_IUPAC_NAME>
tellanylidenegallium

> <PUBCHEM_IUPAC_SYSTEMATIC_NAME>
tellanylidenegallium

> <PUBCHEM_IUPAC_TRADITIONAL_NAME>
telluroxogallium

> <PUBCHEM_IUPAC_INCHI>
InChI=1S/Ga.Te

> <PUBCHEM_IUPAC_INCHIKEY>
OFIYHXOOOISSDN-UHFFFAOYSA-N

> <PUBCHEM_EXACT_MASS>
198.83180

> <PUBCHEM_MOLECULAR_FORMULA>
GaTe

> <PUBCHEM_MOLECULAR_WEIGHT>
197.3

> <PUBCHEM_SMILES>
[Ga]=[Te]

> <PUBCHEM_CONNECTIVITY_SMILES>
[Ga]=[Te]

> <PUBCHEM_CACTVS_TPSA>
0

> <PUBCHEM_MONOISOTOPIC_WEIGHT>
198.83180

> <PUBCHEM_TOTAL_CHARGE>
0

> <PUBCHEM_HEAVY_ATOM_COUNT>
2

> <PUBCHEM_ATOM_DEF_STEREO_COUNT>
0

> <PUBCHEM_ATOM_UDEF_STEREO_COUNT>
0

> <PUBCHEM_BOND_DEF_STEREO_COUNT>
0

> <PUBCHEM_BOND_UDEF_STEREO_COUNT>
0

> <PUBCHEM_ISOTOPIC_ATOM_COUNT>
0

> <PUBCHEM_COMPONENT_COUNT>
1

> <PUBCHEM_CACTVS_TAUTO_COUNT>
-1

> <PUBCHEM_COORDINATE_TYPE>
1
5
255

$$$$
