11550823
  -OEChem-08152605042D

 16 11  0     0  0  0  0  0  0999 V2000
    1.7320    2.5000    0.0000 Ga  0  1  0  0  0  0  0  0  0  0  0  0
    4.3301    3.0000    0.0000 O   0  5  0  0  0  0  0  0  0  0  0  0
    2.5981    3.0000    0.0000 O   0  5  0  0  0  0  0  0  0  0  0  0
    0.0000    4.5000    0.0000 O   0  5  0  0  0  0  0  0  0  0  0  0
    0.8660    3.0000    0.0000 O   0  5  0  0  0  0  0  0  0  0  0  0
    0.8660    0.0000    0.0000 O   0  5  0  0  0  0  0  0  0  0  0  0
    1.7320    1.5000    0.0000 O   0  5  0  0  0  0  0  0  0  0  0  0
    3.4641    1.5000    0.0000 O   0  0  0  0  0  0  0  0  0  0  0  0
    1.7320    4.5000    0.0000 O   0  0  0  0  0  0  0  0  0  0  0  0
    0.0000    1.5000    0.0000 O   0  0  0  0  0  0  0  0  0  0  0  0
    2.1651    6.5000    0.0000 O   0  0  0  0  0  0  0  0  0  0  0  0
    3.4641    2.5000    0.0000 N   0  3  0  0  0  0  0  0  0  0  0  0
    0.8660    4.0000    0.0000 N   0  3  0  0  0  0  0  0  0  0  0  0
    0.8660    1.0000    0.0000 N   0  3  0  0  0  0  0  0  0  0  0  0
    2.7020    6.8100    0.0000 H   0  0  0  0  0  0  0  0  0  0  0  0
    1.6281    6.8100    0.0000 H   0  0  0  0  0  0  0  0  0  0  0  0
  2 12  1  0  0  0  0
  3 12  1  0  0  0  0
  4 13  1  0  0  0  0
  5 13  1  0  0  0  0
  6 14  1  0  0  0  0
  7 14  1  0  0  0  0
  8 12  2  0  0  0  0
  9 13  2  0  0  0  0
 10 14  2  0  0  0  0
 11 15  1  0  0  0  0
 11 16  1  0  0  0  0
M  CHG  8   1   3   2  -1   3  -1   4  -1   5  -1   6  -1   7  -1  12   1
M  CHG  2  13   1  14   1
M  END
> <PUBCHEM_COMPOUND_CID>
11550823

> <PUBCHEM_COMPOUND_CANONICALIZED>
1

> <PUBCHEM_CACTVS_COMPLEXITY>
18.8

> <PUBCHEM_CACTVS_HBOND_ACCEPTOR>
10

> <PUBCHEM_CACTVS_HBOND_DONOR>
1

> <PUBCHEM_CACTVS_ROTATABLE_BOND>
0

> <PUBCHEM_CACTVS_SUBSKEYS>
AAADcQADPAAAAAABAAAAAAAAAAAAAAAAAAAAAAAAAAAAAAAAAAAAAAAECAAAAAAAAAAAAAAAQAABAAAAAQAAAAAAAAAAAAAAAAAAAAAAAAAAAAAAAAAAAAAAAAAAAAAAAAAAAAAAAAAAAAAAAAAAAAAAAA==

> <PUBCHEM_IUPAC_OPENEYE_NAME>
gallium;trinitrate;hydrate

> <PUBCHEM_IUPAC_CAS_NAME>
gallium;trinitrate;hydrate

> <PUBCHEM_IUPAC_NAME_MARKUP>
gallium;trinitrate;hydrate

> <PUBCHEM_IUPAC_NAME>
gallium;trinitrate;hydrate

> <PUBCHEM_IUPAC_SYSTEMATIC_NAME>
gallium;trinitrate;hydrate

> <PUBCHEM_IUPAC_TRADITIONAL_NAME>
gallium;trinitrate;hydrate

> <PUBCHEM_IUPAC_INCHI>
InChI=1S/Ga.3NO3.H2O/c;3*2-1(3)4;/h;;;;1H2/q+3;3*-1;

> <PUBCHEM_IUPAC_INCHIKEY>
YVFORYDECCQDAW-UHFFFAOYSA-N

> <PUBCHEM_EXACT_MASS>
272.89959

> <PUBCHEM_MOLECULAR_FORMULA>
GaH2N3O10

> <PUBCHEM_MOLECULAR_WEIGHT>
273.75

> <PUBCHEM_SMILES>
[N+](=O)([O-])[O-].[N+](=O)([O-])[O-].[N+](=O)([O-])[O-].O.[Ga+3]

> <PUBCHEM_CONNECTIVITY_SMILES>
[N+](=O)([O-])[O-].[N+](=O)([O-])[O-].[N+](=O)([O-])[O-].O.[Ga+3]

> <PUBCHEM_CACTVS_TPSA>
190

> <PUBCHEM_MONOISOTOPIC_WEIGHT>
272.89959

> <PUBCHEM_TOTAL_CHARGE>
0

> <PUBCHEM_HEAVY_ATOM_COUNT>
14

> <PUBCHEM_ATOM_DEF_STEREO_COUNT>
0

> <PUBCHEM_ATOM_UDEF_STEREO_COUNT>
0

> <PUBCHEM_BOND_DEF_STEREO_COUNT>
0

> <PUBCHEM_BOND_UDEF_STEREO_COUNT>
0

> <PUBCHEM_ISOTOPIC_ATOM_COUNT>
0

> <PUBCHEM_COMPONENT_COUNT>
5

> <PUBCHEM_CACTVS_TAUTO_COUNT>
-1

> <PUBCHEM_COORDINATE_TYPE>
1
5
255

$$$$
