16686014
  -OEChem-08152607252D

  3  2  0     0  0  0  0  0  0999 V2000
    3.7320    0.2500    0.0000 Ga  0  0  0  0  0  1  0  0  0  0  0  0
    2.0000    0.2500    0.0000 Ga  0  0  0  0  0  1  0  0  0  0  0  0
    2.8660   -0.2500    0.0000 S   0  0  0  0  0  0  0  0  0  0  0  0
  1  3  1  0  0  0  0
  2  3  1  0  0  0  0
M  END
> <PUBCHEM_COMPOUND_CID>
16686014

> <PUBCHEM_COMPOUND_CANONICALIZED>
1

> <PUBCHEM_CACTVS_COMPLEXITY>
2.8

> <PUBCHEM_CACTVS_HBOND_ACCEPTOR>
1

> <PUBCHEM_CACTVS_HBOND_DONOR>
0

> <PUBCHEM_CACTVS_ROTATABLE_BOND>
0

> <PUBCHEM_CACTVS_SUBSKEYS>
AAADcQAAAABAAAABAAAAAAAAAAAAAAAAAAAAAAAAAAAAAAAAAAAAAAAAAAAAAAAAAAAAAAAAAAAAAAAAAAAAAAAAAAAAAAAAAAAAAAAAAAAAAAAAAAAAAAAAAAAAAAAAAAAAAAAAAAAAAAAAAAAAAAAAAA==

> <PUBCHEM_IUPAC_INCHI>
InChI=1S/2Ga.S

> <PUBCHEM_IUPAC_INCHIKEY>
YCQYSRKVRSEOQP-UHFFFAOYSA-N

> <PUBCHEM_EXACT_MASS>
171.82235

> <PUBCHEM_MOLECULAR_FORMULA>
Ga2S

> <PUBCHEM_MOLECULAR_WEIGHT>
171.51

> <PUBCHEM_SMILES>
S([Ga])[Ga]

> <PUBCHEM_CONNECTIVITY_SMILES>
S([Ga])[Ga]

> <PUBCHEM_CACTVS_TPSA>
25.3

> <PUBCHEM_MONOISOTOPIC_WEIGHT>
169.82322

> <PUBCHEM_TOTAL_CHARGE>
0

> <PUBCHEM_HEAVY_ATOM_COUNT>
3

> <PUBCHEM_ATOM_DEF_STEREO_COUNT>
0

> <PUBCHEM_ATOM_UDEF_STEREO_COUNT>
0

> <PUBCHEM_BOND_DEF_STEREO_COUNT>
0

> <PUBCHEM_BOND_UDEF_STEREO_COUNT>
0

> <PUBCHEM_ISOTOPIC_ATOM_COUNT>
0

> <PUBCHEM_COMPONENT_COUNT>
1

> <PUBCHEM_CACTVS_TAUTO_COUNT>
-1

> <PUBCHEM_COORDINATE_TYPE>
1
5
255

$$$$
