6370242
  -OEChem-08152606012D

  2  1  0     0  0  0  0  0  0999 V2000
    3.0000    0.0000    0.0000 Ga  0  4  0  0  0  0  0  0  0  0  0  0
    2.0000    0.0000    0.0000 S   0  0  0  0  0  0  0  0  0  0  0  0
  1  2  2  0  0  0  0
M  RAD  1   1   2
M  END
> <PUBCHEM_COMPOUND_CID>
6370242

> <PUBCHEM_COMPOUND_CANONICALIZED>
1

> <PUBCHEM_CACTVS_COMPLEXITY>
2

> <PUBCHEM_CACTVS_HBOND_ACCEPTOR>
1

> <PUBCHEM_CACTVS_HBOND_DONOR>
0

> <PUBCHEM_CACTVS_ROTATABLE_BOND>
0

> <PUBCHEM_CACTVS_SUBSKEYS>
AAADcQAAAABAAAABAAAAAAAAAAAAAAAAAAAAAAAAAAAAAAAAAAAAAAAAAAAAAAAAAAAAAAAAAAAAAAAAAAAAAAAAAAAAAAAAAAAAAAAAAAAAAAAAAAAAAAAAAAAAAAAAAAAAAAAAAAAAAAAAAAAAAAAAAA==

> <PUBCHEM_IUPAC_OPENEYE_NAME>
thioxogallium

> <PUBCHEM_IUPAC_CAS_NAME>
sulfanylidenegallium

> <PUBCHEM_IUPAC_NAME_MARKUP>
sulfanylidenegallium

> <PUBCHEM_IUPAC_NAME>
sulfanylidenegallium

> <PUBCHEM_IUPAC_SYSTEMATIC_NAME>
sulfanylidenegallium

> <PUBCHEM_IUPAC_TRADITIONAL_NAME>
thioxogallium

> <PUBCHEM_IUPAC_INCHI>
InChI=1S/Ga.S

> <PUBCHEM_IUPAC_INCHIKEY>
HLVRMBHKGAMNOI-UHFFFAOYSA-N

> <PUBCHEM_EXACT_MASS>
100.89764

> <PUBCHEM_MOLECULAR_FORMULA>
GaS

> <PUBCHEM_MOLECULAR_WEIGHT>
101.79

> <PUBCHEM_SMILES>
S=[Ga]

> <PUBCHEM_CONNECTIVITY_SMILES>
S=[Ga]

> <PUBCHEM_CACTVS_TPSA>
32.1

> <PUBCHEM_MONOISOTOPIC_WEIGHT>
100.89764

> <PUBCHEM_TOTAL_CHARGE>
0

> <PUBCHEM_HEAVY_ATOM_COUNT>
2

> <PUBCHEM_ATOM_DEF_STEREO_COUNT>
0

> <PUBCHEM_ATOM_UDEF_STEREO_COUNT>
0

> <PUBCHEM_BOND_DEF_STEREO_COUNT>
0

> <PUBCHEM_BOND_UDEF_STEREO_COUNT>
0

> <PUBCHEM_ISOTOPIC_ATOM_COUNT>
0

> <PUBCHEM_COMPONENT_COUNT>
1

> <PUBCHEM_CACTVS_TAUTO_COUNT>
-1

> <PUBCHEM_COORDINATE_TYPE>
1
5
255

$$$$
