6335277
  -OEChem-08152606442D

  2  0  0     0  0  0  0  0  0999 V2000
    0.0000    2.5000    0.0000 Sb  0  0  0  0  0 15  0  0  0  0  0  0
    0.0000    0.0000    0.0000 Ga  0  1  0  0  0  0  0  0  0  0  0  0
M  CHG  1   2   3
M  END
> <PUBCHEM_COMPOUND_CID>
6335277

> <PUBCHEM_COMPOUND_CANONICALIZED>
1

> <PUBCHEM_CACTVS_COMPLEXITY>
0

> <PUBCHEM_CACTVS_HBOND_ACCEPTOR>
0

> <PUBCHEM_CACTVS_HBOND_DONOR>
0

> <PUBCHEM_CACTVS_ROTATABLE_BOND>
0

> <PUBCHEM_CACTVS_SUBSKEYS>
AAADcQAAAAAAAAABAABAAAAAAAAAAAAAAAAAAAAAAAAAAAAAAAAAAAAAAAAAAAAAAAAAAAAAAAAAAAAAAAAAAAAAAAAAAAAAAAAAAAAAAAAAAAAAAAAAAAAAAAAAAAAAAAAAAAAAAAAAAAAAAAAAAAAAAA==

> <PUBCHEM_IUPAC_OPENEYE_NAME>
gallium antimony

> <PUBCHEM_IUPAC_CAS_NAME>
gallium antimony

> <PUBCHEM_IUPAC_NAME_MARKUP>
gallium antimony

> <PUBCHEM_IUPAC_NAME>
gallium antimony

> <PUBCHEM_IUPAC_SYSTEMATIC_NAME>
gallium antimony

> <PUBCHEM_IUPAC_TRADITIONAL_NAME>
gallium antimony

> <PUBCHEM_IUPAC_INCHI>
InChI=1S/Ga.Sb/q+3;

> <PUBCHEM_IUPAC_INCHIKEY>
HDDJZDZAJXHQIL-UHFFFAOYSA-N

> <PUBCHEM_EXACT_MASS>
189.82938

> <PUBCHEM_MOLECULAR_FORMULA>
GaSb+3

> <PUBCHEM_MOLECULAR_WEIGHT>
191.483

> <PUBCHEM_SMILES>
[Ga+3].[Sb]

> <PUBCHEM_CONNECTIVITY_SMILES>
[Ga+3].[Sb]

> <PUBCHEM_CACTVS_TPSA>
0

> <PUBCHEM_MONOISOTOPIC_WEIGHT>
189.82938

> <PUBCHEM_TOTAL_CHARGE>
3

> <PUBCHEM_HEAVY_ATOM_COUNT>
2

> <PUBCHEM_ATOM_DEF_STEREO_COUNT>
0

> <PUBCHEM_ATOM_UDEF_STEREO_COUNT>
0

> <PUBCHEM_BOND_DEF_STEREO_COUNT>
0

> <PUBCHEM_BOND_UDEF_STEREO_COUNT>
0

> <PUBCHEM_ISOTOPIC_ATOM_COUNT>
0

> <PUBCHEM_COMPONENT_COUNT>
2

> <PUBCHEM_CACTVS_TAUTO_COUNT>
-1

> <PUBCHEM_COORDINATE_TYPE>
1
5
255

$$$$
