14770
  -OEChem-08152604332D

  2  1  0     0  0  0  0  0  0999 V2000
    2.0000    0.0000    0.0000 As  0  0  0  0  0  0  0  0  0  0  0  0
    3.0000    0.0000    0.0000 Ga  0  0  0  0  0  0  0  0  0  0  0  0
  1  2  3  0  0  0  0
M  END
> <PUBCHEM_COMPOUND_CID>
14770

> <PUBCHEM_COMPOUND_CANONICALIZED>
1

> <PUBCHEM_CACTVS_COMPLEXITY>
10

> <PUBCHEM_CACTVS_HBOND_ACCEPTOR>
0

> <PUBCHEM_CACTVS_HBOND_DONOR>
0

> <PUBCHEM_CACTVS_ROTATABLE_BOND>
0

> <PUBCHEM_CACTVS_SUBSKEYS>
AAADcQAAAAAAAAABQAAAAAAAAAAAAAAAAAAAAAAAAAAAAAAAAAAAAAAAAAAAAAAAAAAAAAAAAAAAAAAAAAAAAAAAAAAAAAAAAAAAAAAAAAAAAAAAAAAAAAAAAAAAAAAAAAAAAAAAAAAAAAAAAAAAAAAAAA==

> <PUBCHEM_IUPAC_OPENEYE_NAME>
gallanylidynearsane

> <PUBCHEM_IUPAC_CAS_NAME>
gallanylidynearsine

> <PUBCHEM_IUPAC_NAME_MARKUP>
gallanylidynearsane

> <PUBCHEM_IUPAC_NAME>
gallanylidynearsane

> <PUBCHEM_IUPAC_SYSTEMATIC_NAME>
gallanylidynearsane

> <PUBCHEM_IUPAC_TRADITIONAL_NAME>
gallanylidynearsine

> <PUBCHEM_IUPAC_INCHI>
InChI=1S/As.Ga

> <PUBCHEM_IUPAC_INCHIKEY>
JBRZTFJDHDCESZ-UHFFFAOYSA-N

> <PUBCHEM_EXACT_MASS>
143.84717

> <PUBCHEM_MOLECULAR_FORMULA>
AsGa

> <PUBCHEM_MOLECULAR_WEIGHT>
144.645

> <PUBCHEM_SMILES>
[Ga]#[As]

> <PUBCHEM_CONNECTIVITY_SMILES>
[Ga]#[As]

> <PUBCHEM_CACTVS_TPSA>
0

> <PUBCHEM_MONOISOTOPIC_WEIGHT>
143.84717

> <PUBCHEM_TOTAL_CHARGE>
0

> <PUBCHEM_HEAVY_ATOM_COUNT>
2

> <PUBCHEM_ATOM_DEF_STEREO_COUNT>
0

> <PUBCHEM_ATOM_UDEF_STEREO_COUNT>
0

> <PUBCHEM_BOND_DEF_STEREO_COUNT>
0

> <PUBCHEM_BOND_UDEF_STEREO_COUNT>
0

> <PUBCHEM_ISOTOPIC_ATOM_COUNT>
0

> <PUBCHEM_COMPONENT_COUNT>
1

> <PUBCHEM_CACTVS_TAUTO_COUNT>
-1

> <PUBCHEM_COORDINATE_TYPE>
1
5
255

$$$$
