26011
  -OEChem-08152606192D

  5  4  0     0  0  0  0  0  0999 V2000
    3.7321    0.5000    0.0000 Br  0  0  0  0  0  0  0  0  0  0  0  0
    2.0000   -0.5000    0.0000 Br  0  0  0  0  0  0  0  0  0  0  0  0
    2.3660    0.8660    0.0000 Br  0  0  0  0  0  0  0  0  0  0  0  0
    3.3660   -0.8660    0.0000 Br  0  0  0  0  0  0  0  0  0  0  0  0
    2.8660    0.0000    0.0000 Ge  0  0  0  0  0  0  0  0  0  0  0  0
  1  5  1  0  0  0  0
  2  5  1  0  0  0  0
  3  5  1  0  0  0  0
  4  5  1  0  0  0  0
M  END
> <PUBCHEM_COMPOUND_CID>
26011

> <PUBCHEM_COMPOUND_CANONICALIZED>
1

> <PUBCHEM_CACTVS_COMPLEXITY>
19.1

> <PUBCHEM_CACTVS_HBOND_ACCEPTOR>
0

> <PUBCHEM_CACTVS_HBOND_DONOR>
0

> <PUBCHEM_CACTVS_ROTATABLE_BOND>
0

> <PUBCHEM_CACTVS_SUBSKEYS>
AAADcQAAAAAAHAAAgAAAAAAAAAAAAAAAAAAAAAAAAAAAAAAAAAAAAAAAAAAAAAAAAAAAAAAAAAAAAAAAAAAAAAAAAAAAAAAAAAAAAAAAAAAAAAAAAAAAAAAAAAAAAAAAAAAAAAAAAAAAAAAAAAAAAAAAAA==

> <PUBCHEM_IUPAC_OPENEYE_NAME>
tetrabromogermane

> <PUBCHEM_IUPAC_CAS_NAME>
tetrabromogermane

> <PUBCHEM_IUPAC_NAME_MARKUP>
tetrabromogermane

> <PUBCHEM_IUPAC_NAME>
tetrabromogermane

> <PUBCHEM_IUPAC_SYSTEMATIC_NAME>
tetrakis(bromanyl)germane

> <PUBCHEM_IUPAC_TRADITIONAL_NAME>
tetrabromogermane

> <PUBCHEM_IUPAC_INCHI>
InChI=1S/Br4Ge/c1-5(2,3)4

> <PUBCHEM_IUPAC_INCHIKEY>
VJHDVMPJLLGYBL-UHFFFAOYSA-N

> <PUBCHEM_EXACT_MASS>
393.59043

> <PUBCHEM_MOLECULAR_FORMULA>
Br4Ge

> <PUBCHEM_MOLECULAR_WEIGHT>
392.25

> <PUBCHEM_SMILES>
[Ge](Br)(Br)(Br)Br

> <PUBCHEM_CONNECTIVITY_SMILES>
[Ge](Br)(Br)(Br)Br

> <PUBCHEM_CACTVS_TPSA>
0

> <PUBCHEM_MONOISOTOPIC_WEIGHT>
389.59453

> <PUBCHEM_TOTAL_CHARGE>
0

> <PUBCHEM_HEAVY_ATOM_COUNT>
5

> <PUBCHEM_ATOM_DEF_STEREO_COUNT>
0

> <PUBCHEM_ATOM_UDEF_STEREO_COUNT>
0

> <PUBCHEM_BOND_DEF_STEREO_COUNT>
0

> <PUBCHEM_BOND_UDEF_STEREO_COUNT>
0

> <PUBCHEM_ISOTOPIC_ATOM_COUNT>
0

> <PUBCHEM_COMPONENT_COUNT>
1

> <PUBCHEM_CACTVS_TAUTO_COUNT>
-1

> <PUBCHEM_COORDINATE_TYPE>
1
5
255

$$$$
