16684757
  -OEChem-08152604512D

  7  6  0     0  0  0  0  0  0999 V2000
    4.5981    1.0000    0.0000 Ge  0  0  0  0  0  0  0  0  0  0  0  0
    2.8660    1.0000    0.0000 Ge  0  0  0  0  0  0  0  0  0  0  0  0
    3.7321   -0.5000    0.0000 Ge  0  0  0  0  0  0  0  0  0  0  0  0
    3.7321    0.5000    0.0000 N   0  0  0  0  0  0  0  0  0  0  0  0
    5.4641    1.5000    0.0000 N   0  0  0  0  0  0  0  0  0  0  0  0
    2.0000    1.5000    0.0000 N   0  0  0  0  0  0  0  0  0  0  0  0
    3.7321   -1.5000    0.0000 N   0  0  0  0  0  0  0  0  0  0  0  0
  1  4  1  0  0  0  0
  1  5  3  0  0  0  0
  2  4  1  0  0  0  0
  2  6  3  0  0  0  0
  3  4  1  0  0  0  0
  3  7  3  0  0  0  0
M  END
> <PUBCHEM_COMPOUND_CID>
16684757

> <PUBCHEM_COMPOUND_CANONICALIZED>
1

> <PUBCHEM_CACTVS_COMPLEXITY>
151

> <PUBCHEM_CACTVS_HBOND_ACCEPTOR>
4

> <PUBCHEM_CACTVS_HBOND_DONOR>
0

> <PUBCHEM_CACTVS_ROTATABLE_BOND>
0

> <PUBCHEM_CACTVS_SUBSKEYS>
AAADcQADgAAAAAAAgAAAAAAAAAAAAAAAAAAAAAAAAAAAAAAAAAAAAAAAAAAAAAAAAAAAAAAAAAAAAAAAAAAAAAAAAAAAAAAAAAAAAAAAAAAAAAAAAAAAAAAAAAAAAAAAAAAAAAAAAAAAAAAAAAAAAAAAAA==

> <PUBCHEM_IUPAC_TRADITIONAL_NAME>
tris(nitrilogermyl)amine

> <PUBCHEM_IUPAC_INCHI>
InChI=1S/Ge3N4/c4-1-7(2-5)3-6

> <PUBCHEM_IUPAC_INCHIKEY>
BIXHRBFZLLFBFL-UHFFFAOYSA-N

> <PUBCHEM_EXACT_MASS>
271.779798

> <PUBCHEM_MOLECULAR_FORMULA>
Ge3N4

> <PUBCHEM_MOLECULAR_WEIGHT>
273.9

> <PUBCHEM_SMILES>
N#[Ge]N([Ge]#N)[Ge]#N

> <PUBCHEM_CONNECTIVITY_SMILES>
N#[Ge]N([Ge]#N)[Ge]#N

> <PUBCHEM_CACTVS_TPSA>
74.6

> <PUBCHEM_MONOISOTOPIC_WEIGHT>
277.7758293

> <PUBCHEM_TOTAL_CHARGE>
0

> <PUBCHEM_HEAVY_ATOM_COUNT>
7

> <PUBCHEM_ATOM_DEF_STEREO_COUNT>
0

> <PUBCHEM_ATOM_UDEF_STEREO_COUNT>
0

> <PUBCHEM_BOND_DEF_STEREO_COUNT>
0

> <PUBCHEM_BOND_UDEF_STEREO_COUNT>
0

> <PUBCHEM_ISOTOPIC_ATOM_COUNT>
0

> <PUBCHEM_COMPONENT_COUNT>
1

> <PUBCHEM_CACTVS_TAUTO_COUNT>
-1

> <PUBCHEM_COORDINATE_TYPE>
1
5
255

$$$$
