16684444
  -OEChem-08152607402D

 33 32  0     0  0  0  0  0  0999 V2000
    4.5981    0.0000    0.0000 Ge  0  0  0  0  0  0  0  0  0  0  0  0
    5.4641    0.5000    0.0000 O   0  0  0  0  0  0  0  0  0  0  0  0
    3.7321   -0.5000    0.0000 O   0  0  0  0  0  0  0  0  0  0  0  0
    4.0981    0.8660    0.0000 O   0  0  0  0  0  0  0  0  0  0  0  0
    5.0981   -0.8660    0.0000 O   0  0  0  0  0  0  0  0  0  0  0  0
    6.3301    0.0000    0.0000 C   0  0  0  0  0  0  0  0  0  0  0  0
    2.8660   -0.0000    0.0000 C   0  0  0  0  0  0  0  0  0  0  0  0
    4.5981    1.7321    0.0000 C   0  0  0  0  0  0  0  0  0  0  0  0
    4.5981   -1.7321    0.0000 C   0  0  0  0  0  0  0  0  0  0  0  0
    7.1962    0.5000    0.0000 C   0  0  0  0  0  0  0  0  0  0  0  0
    2.0000   -0.5000    0.0000 C   0  0  0  0  0  0  0  0  0  0  0  0
    4.0981    2.5981    0.0000 C   0  0  0  0  0  0  0  0  0  0  0  0
    5.0981   -2.5981    0.0000 C   0  0  0  0  0  0  0  0  0  0  0  0
    5.9316   -0.4749    0.0000 H   0  0  0  0  0  0  0  0  0  0  0  0
    6.7287   -0.4749    0.0000 H   0  0  0  0  0  0  0  0  0  0  0  0
    3.2646    0.4749    0.0000 H   0  0  0  0  0  0  0  0  0  0  0  0
    2.4675    0.4749    0.0000 H   0  0  0  0  0  0  0  0  0  0  0  0
    5.0730    1.3335    0.0000 H   0  0  0  0  0  0  0  0  0  0  0  0
    5.0730    2.1306    0.0000 H   0  0  0  0  0  0  0  0  0  0  0  0
    4.1231   -1.3335    0.0000 H   0  0  0  0  0  0  0  0  0  0  0  0
    4.1231   -2.1306    0.0000 H   0  0  0  0  0  0  0  0  0  0  0  0
    7.5062   -0.0369    0.0000 H   0  0  0  0  0  0  0  0  0  0  0  0
    7.7331    0.8100    0.0000 H   0  0  0  0  0  0  0  0  0  0  0  0
    6.8862    1.0369    0.0000 H   0  0  0  0  0  0  0  0  0  0  0  0
    1.6900    0.0369    0.0000 H   0  0  0  0  0  0  0  0  0  0  0  0
    1.4631   -0.8100    0.0000 H   0  0  0  0  0  0  0  0  0  0  0  0
    2.3100   -1.0369    0.0000 H   0  0  0  0  0  0  0  0  0  0  0  0
    4.6350    2.9081    0.0000 H   0  0  0  0  0  0  0  0  0  0  0  0
    3.7881    3.1350    0.0000 H   0  0  0  0  0  0  0  0  0  0  0  0
    3.5611    2.2881    0.0000 H   0  0  0  0  0  0  0  0  0  0  0  0
    4.5611   -2.9081    0.0000 H   0  0  0  0  0  0  0  0  0  0  0  0
    5.4081   -3.1350    0.0000 H   0  0  0  0  0  0  0  0  0  0  0  0
    5.6350   -2.2881    0.0000 H   0  0  0  0  0  0  0  0  0  0  0  0
  1  2  1  0  0  0  0
  1  3  1  0  0  0  0
  1  4  1  0  0  0  0
  1  5  1  0  0  0  0
  2  6  1  0  0  0  0
  3  7  1  0  0  0  0
  4  8  1  0  0  0  0
  5  9  1  0  0  0  0
  6 10  1  0  0  0  0
  6 14  1  0  0  0  0
  6 15  1  0  0  0  0
  7 11  1  0  0  0  0
  7 16  1  0  0  0  0
  7 17  1  0  0  0  0
  8 12  1  0  0  0  0
  8 18  1  0  0  0  0
  8 19  1  0  0  0  0
  9 13  1  0  0  0  0
  9 20  1  0  0  0  0
  9 21  1  0  0  0  0
 10 22  1  0  0  0  0
 10 23  1  0  0  0  0
 10 24  1  0  0  0  0
 11 25  1  0  0  0  0
 11 26  1  0  0  0  0
 11 27  1  0  0  0  0
 12 28  1  0  0  0  0
 12 29  1  0  0  0  0
 12 30  1  0  0  0  0
 13 31  1  0  0  0  0
 13 32  1  0  0  0  0
 13 33  1  0  0  0  0
M  END
> <PUBCHEM_COMPOUND_CID>
16684444

> <PUBCHEM_COMPOUND_CANONICALIZED>
1

> <PUBCHEM_CACTVS_COMPLEXITY>
91.2

> <PUBCHEM_CACTVS_HBOND_ACCEPTOR>
4

> <PUBCHEM_CACTVS_HBOND_DONOR>
0

> <PUBCHEM_CACTVS_ROTATABLE_BOND>
8

> <PUBCHEM_CACTVS_SUBSKEYS>
AAADceBwOAAAAAAAgAAAAAAAAAAAAAAAAAAAAAAAAAAAAAAAAAAAGgAAAAAAAACggAICAAAAAAAAAAAAAAAAAAAAAAAAAAAAAAAAAAAAAAAAAAAAAAAAAAAAAAAAAAAAAAAAAAAAAAAAAAAAAAAAAAAAAA==

> <PUBCHEM_IUPAC_OPENEYE_NAME>
tetraethoxygermane

> <PUBCHEM_IUPAC_CAS_NAME>
tetraethoxygermane

> <PUBCHEM_IUPAC_NAME_MARKUP>
tetraethoxygermane

> <PUBCHEM_IUPAC_NAME>
tetraethoxygermane

> <PUBCHEM_IUPAC_SYSTEMATIC_NAME>
tetraethoxygermane

> <PUBCHEM_IUPAC_TRADITIONAL_NAME>
tetraethoxygermane

> <PUBCHEM_IUPAC_INCHI>
InChI=1S/C8H20GeO4/c1-5-10-9(11-6-2,12-7-3)13-8-4/h5-8H2,1-4H3

> <PUBCHEM_IUPAC_INCHIKEY>
GXMNGLIMQIPFEB-UHFFFAOYSA-N

> <PUBCHEM_EXACT_MASS>
254.0573369

> <PUBCHEM_MOLECULAR_FORMULA>
C8H20GeO4

> <PUBCHEM_MOLECULAR_WEIGHT>
252.87

> <PUBCHEM_SMILES>
CCO[Ge](OCC)(OCC)OCC

> <PUBCHEM_CONNECTIVITY_SMILES>
CCO[Ge](OCC)(OCC)OCC

> <PUBCHEM_CACTVS_TPSA>
36.9

> <PUBCHEM_MONOISOTOPIC_WEIGHT>
254.0573369

> <PUBCHEM_TOTAL_CHARGE>
0

> <PUBCHEM_HEAVY_ATOM_COUNT>
13

> <PUBCHEM_ATOM_DEF_STEREO_COUNT>
0

> <PUBCHEM_ATOM_UDEF_STEREO_COUNT>
0

> <PUBCHEM_BOND_DEF_STEREO_COUNT>
0

> <PUBCHEM_BOND_UDEF_STEREO_COUNT>
0

> <PUBCHEM_ISOTOPIC_ATOM_COUNT>
0

> <PUBCHEM_COMPONENT_COUNT>
1

> <PUBCHEM_CACTVS_TAUTO_COUNT>
-1

> <PUBCHEM_COORDINATE_TYPE>
1
5
255

$$$$
