23984
  -OEChem-08152606432D

  5  4  0     0  0  0  0  0  0999 V2000
    2.5369    0.0000    0.0000 Ge  0  0  0  0  0  0  0  0  0  0  0  0
    3.0739    0.3100    0.0000 H   0  0  0  0  0  0  0  0  0  0  0  0
    2.0000   -0.3100    0.0000 H   0  0  0  0  0  0  0  0  0  0  0  0
    2.2269    0.5369    0.0000 H   0  0  0  0  0  0  0  0  0  0  0  0
    2.8469   -0.5369    0.0000 H   0  0  0  0  0  0  0  0  0  0  0  0
  1  2  1  0  0  0  0
  1  3  1  0  0  0  0
  1  4  1  0  0  0  0
  1  5  1  0  0  0  0
M  END
> <PUBCHEM_COMPOUND_CID>
23984

> <PUBCHEM_COMPOUND_CANONICALIZED>
1

> <PUBCHEM_CACTVS_COMPLEXITY>
0

> <PUBCHEM_CACTVS_HBOND_ACCEPTOR>
0

> <PUBCHEM_CACTVS_HBOND_DONOR>
0

> <PUBCHEM_CACTVS_ROTATABLE_BOND>
0

> <PUBCHEM_CACTVS_SUBSKEYS>
AAADcYAAAAAAAAAAgAAAAAAAAAAAAAAAAAAAAAAAAAAAAAAAAAAAAAAAAAAAAAAAAAAAAAAAAAAAAAAAAAAAAAAAAAAAAAAAAAAAAAAAAAAAAAAAAAAAAAAAAAAAAAAAAAAAAAAAAAAAAAAAAAAAAAAAAA==

> <PUBCHEM_IUPAC_OPENEYE_NAME>
germane

> <PUBCHEM_IUPAC_CAS_NAME>
germane

> <PUBCHEM_IUPAC_NAME_MARKUP>
germane

> <PUBCHEM_IUPAC_NAME>
germane

> <PUBCHEM_IUPAC_SYSTEMATIC_NAME>
germane

> <PUBCHEM_IUPAC_TRADITIONAL_NAME>
germane

> <PUBCHEM_IUPAC_INCHI>
InChI=1S/GeH4/h1H4

> <PUBCHEM_IUPAC_INCHIKEY>
QUZPNFFHZPRKJD-UHFFFAOYSA-N

> <PUBCHEM_EXACT_MASS>
77.9524779

> <PUBCHEM_MOLECULAR_FORMULA>
GeH4

> <PUBCHEM_MOLECULAR_WEIGHT>
76.66

> <PUBCHEM_SMILES>
[GeH4]

> <PUBCHEM_CONNECTIVITY_SMILES>
[GeH4]

> <PUBCHEM_CACTVS_TPSA>
0

> <PUBCHEM_MONOISOTOPIC_WEIGHT>
77.9524779

> <PUBCHEM_TOTAL_CHARGE>
0

> <PUBCHEM_HEAVY_ATOM_COUNT>
1

> <PUBCHEM_ATOM_DEF_STEREO_COUNT>
0

> <PUBCHEM_ATOM_UDEF_STEREO_COUNT>
0

> <PUBCHEM_BOND_DEF_STEREO_COUNT>
0

> <PUBCHEM_BOND_UDEF_STEREO_COUNT>
0

> <PUBCHEM_ISOTOPIC_ATOM_COUNT>
0

> <PUBCHEM_COMPONENT_COUNT>
1

> <PUBCHEM_CACTVS_TAUTO_COUNT>
-1

> <PUBCHEM_COORDINATE_TYPE>
1
5
255

$$$$
