6367215
  -OEChem-08152605002D

  2  1  0     0  0  0  0  0  0999 V2000
    3.0000    0.0000    0.0000 Ge  0  0  0  0  0  2  0  0  0  0  0  0
    2.0000    0.0000    0.0000 S   0  0  0  0  0  0  0  0  0  0  0  0
  1  2  2  0  0  0  0
M  END
> <PUBCHEM_COMPOUND_CID>
6367215

> <PUBCHEM_COMPOUND_CANONICALIZED>
1

> <PUBCHEM_CACTVS_COMPLEXITY>
2

> <PUBCHEM_CACTVS_HBOND_ACCEPTOR>
1

> <PUBCHEM_CACTVS_HBOND_DONOR>
0

> <PUBCHEM_CACTVS_ROTATABLE_BOND>
0

> <PUBCHEM_CACTVS_SUBSKEYS>
AAADcQAAAABAAAAAgAAAAAAAAAAAAAAAAAAAAAAAAAAAAAAAAAAAAAAAAAAAAAAAAAAAAAAAAAAAAAAAAAAAAAAAAAAAAAAAAAAAAAAAAAAAAAAAAAAAAAAAAAAAAAAAAAAAAAAAAAAAAAAAAAAAAAAAAA==

> <PUBCHEM_IUPAC_OPENEYE_NAME>
thioxogermanium

> <PUBCHEM_IUPAC_CAS_NAME>
sulfanylidenegermanium

> <PUBCHEM_IUPAC_NAME_MARKUP>
sulfanylidenegermanium

> <PUBCHEM_IUPAC_NAME>
sulfanylidenegermanium

> <PUBCHEM_IUPAC_SYSTEMATIC_NAME>
sulfanylidenegermanium

> <PUBCHEM_IUPAC_TRADITIONAL_NAME>
thioxogermanium

> <PUBCHEM_IUPAC_INCHI>
InChI=1S/GeS/c1-2

> <PUBCHEM_IUPAC_INCHIKEY>
VDNSGQQAZRMTCI-UHFFFAOYSA-N

> <PUBCHEM_EXACT_MASS>
105.8932489

> <PUBCHEM_MOLECULAR_FORMULA>
GeS

> <PUBCHEM_MOLECULAR_WEIGHT>
104.70

> <PUBCHEM_SMILES>
S=[Ge]

> <PUBCHEM_CONNECTIVITY_SMILES>
S=[Ge]

> <PUBCHEM_CACTVS_TPSA>
32.1

> <PUBCHEM_MONOISOTOPIC_WEIGHT>
105.8932489

> <PUBCHEM_TOTAL_CHARGE>
0

> <PUBCHEM_HEAVY_ATOM_COUNT>
2

> <PUBCHEM_ATOM_DEF_STEREO_COUNT>
0

> <PUBCHEM_ATOM_UDEF_STEREO_COUNT>
0

> <PUBCHEM_BOND_DEF_STEREO_COUNT>
0

> <PUBCHEM_BOND_UDEF_STEREO_COUNT>
0

> <PUBCHEM_ISOTOPIC_ATOM_COUNT>
0

> <PUBCHEM_COMPONENT_COUNT>
1

> <PUBCHEM_CACTVS_TAUTO_COUNT>
-1

> <PUBCHEM_COORDINATE_TYPE>
1
5
255

$$$$
