11819222
  -OEChem-08152607112D

  2  0  0     0  0  0  0  0  0999 V2000
    0.0000    2.5000    0.0000 Se  0  6  0  0  0  0  0  0  0  0  0  0
    0.0000    0.0000    0.0000 Ge  0  0  0  0  0 15  0  0  0  0  0  0
M  CHG  1   1  -2
M  END
> <PUBCHEM_COMPOUND_CID>
11819222

> <PUBCHEM_COMPOUND_CANONICALIZED>
1

> <PUBCHEM_CACTVS_COMPLEXITY>
0

> <PUBCHEM_CACTVS_HBOND_ACCEPTOR>
1

> <PUBCHEM_CACTVS_HBOND_DONOR>
0

> <PUBCHEM_CACTVS_ROTATABLE_BOND>
0

> <PUBCHEM_CACTVS_SUBSKEYS>
AAADcQAAAAAAAAAAoAAAAAAAAAAAAAAAAAAAAAAAAAAAAAAAAAAAAAAAAAAAAAAAAAAAAAAAAAAAAAAAAAAAAAAAAAAAAAAAAAAAAAAAAAAAAAAAAAAAAAAAAAAAAAAAAAAAAAAAAAAAAAAAAAAAAAAAAA==

> <PUBCHEM_IUPAC_OPENEYE_NAME>
germanium;selenium(2-)

> <PUBCHEM_IUPAC_CAS_NAME>
germanium;selenium(2-)

> <PUBCHEM_IUPAC_NAME_MARKUP>
germanium;selenium(2-)

> <PUBCHEM_IUPAC_NAME>
germanium;selenium(2-)

> <PUBCHEM_IUPAC_SYSTEMATIC_NAME>
germanium;selenium(2-)

> <PUBCHEM_IUPAC_TRADITIONAL_NAME>
germanium;selenium(2-)

> <PUBCHEM_IUPAC_INCHI>
InChI=1S/Ge.Se/q;-2

> <PUBCHEM_IUPAC_INCHIKEY>
OZNQMROJPGRMLR-UHFFFAOYSA-N

> <PUBCHEM_EXACT_MASS>
153.83770

> <PUBCHEM_MOLECULAR_FORMULA>
GeSe-2

> <PUBCHEM_MOLECULAR_WEIGHT>
151.60

> <PUBCHEM_SMILES>
[Ge].[Se-2]

> <PUBCHEM_CONNECTIVITY_SMILES>
[Ge].[Se-2]

> <PUBCHEM_CACTVS_TPSA>
0

> <PUBCHEM_MONOISOTOPIC_WEIGHT>
153.83770

> <PUBCHEM_TOTAL_CHARGE>
-2

> <PUBCHEM_HEAVY_ATOM_COUNT>
2

> <PUBCHEM_ATOM_DEF_STEREO_COUNT>
0

> <PUBCHEM_ATOM_UDEF_STEREO_COUNT>
0

> <PUBCHEM_BOND_DEF_STEREO_COUNT>
0

> <PUBCHEM_BOND_UDEF_STEREO_COUNT>
0

> <PUBCHEM_ISOTOPIC_ATOM_COUNT>
0

> <PUBCHEM_COMPONENT_COUNT>
2

> <PUBCHEM_CACTVS_TAUTO_COUNT>
-1

> <PUBCHEM_COORDINATE_TYPE>
1
5
255

$$$$
