83479
  -OEChem-08152606532D

  5  4  0     0  0  0  0  0  0999 V2000
    3.7321    0.5000    0.0000 I   0  0  0  0  0  0  0  0  0  0  0  0
    2.0000   -0.5000    0.0000 I   0  0  0  0  0  0  0  0  0  0  0  0
    2.3660    0.8660    0.0000 I   0  0  0  0  0  0  0  0  0  0  0  0
    3.3660   -0.8660    0.0000 I   0  0  0  0  0  0  0  0  0  0  0  0
    2.8660    0.0000    0.0000 Ge  0  0  0  0  0  0  0  0  0  0  0  0
  1  5  1  0  0  0  0
  2  5  1  0  0  0  0
  3  5  1  0  0  0  0
  4  5  1  0  0  0  0
M  END
> <PUBCHEM_COMPOUND_CID>
83479

> <PUBCHEM_COMPOUND_CANONICALIZED>
1

> <PUBCHEM_CACTVS_COMPLEXITY>
19.1

> <PUBCHEM_CACTVS_HBOND_ACCEPTOR>
0

> <PUBCHEM_CACTVS_HBOND_DONOR>
0

> <PUBCHEM_CACTVS_ROTATABLE_BOND>
0

> <PUBCHEM_CACTVS_SUBSKEYS>
AAADcQAAAAAAA4AAgAAAAAAAAAAAAAAAAAAAAAAAAAAAAAAAAAAAAAAAAAAAAAAAAAAAAAAAAAAAAAAAAAAAAAAAAAAAAAAAAAAAAAAAAAAAAAAAAAAAAAAAAAAAAAAAAAAAAAAAAAAAAAAAAAAAAAAAAA==

> <PUBCHEM_IUPAC_OPENEYE_NAME>
tetraiodogermane

> <PUBCHEM_IUPAC_CAS_NAME>
tetraiodogermane

> <PUBCHEM_IUPAC_NAME_MARKUP>
tetraiodogermane

> <PUBCHEM_IUPAC_NAME>
tetraiodogermane

> <PUBCHEM_IUPAC_SYSTEMATIC_NAME>
tetrakis(iodanyl)germane

> <PUBCHEM_IUPAC_TRADITIONAL_NAME>
tetraiodogermane

> <PUBCHEM_IUPAC_INCHI>
InChI=1S/GeI4/c2-1(3,4)5

> <PUBCHEM_IUPAC_INCHIKEY>
CUDGTZJYMWAJFV-UHFFFAOYSA-N

> <PUBCHEM_EXACT_MASS>
581.5391

> <PUBCHEM_MOLECULAR_FORMULA>
GeI4

> <PUBCHEM_MOLECULAR_WEIGHT>
580.25

> <PUBCHEM_SMILES>
[Ge](I)(I)(I)I

> <PUBCHEM_CONNECTIVITY_SMILES>
[Ge](I)(I)(I)I

> <PUBCHEM_CACTVS_TPSA>
0

> <PUBCHEM_MONOISOTOPIC_WEIGHT>
581.5391

> <PUBCHEM_TOTAL_CHARGE>
0

> <PUBCHEM_HEAVY_ATOM_COUNT>
5

> <PUBCHEM_ATOM_DEF_STEREO_COUNT>
0

> <PUBCHEM_ATOM_UDEF_STEREO_COUNT>
0

> <PUBCHEM_BOND_DEF_STEREO_COUNT>
0

> <PUBCHEM_BOND_UDEF_STEREO_COUNT>
0

> <PUBCHEM_ISOTOPIC_ATOM_COUNT>
0

> <PUBCHEM_COMPONENT_COUNT>
1

> <PUBCHEM_CACTVS_TAUTO_COUNT>
-1

> <PUBCHEM_COORDINATE_TYPE>
1
5
255

$$$$
