27366
  -OEChem-08152604442D

  2  1  0     0  0  0  0  0  0999 V2000
    2.0000    0.0000    0.0000 Au  0  0  0  0  0  0  0  0  0  0  0  0
    3.0000    0.0000    0.0000 Cl  0  0  0  0  0  0  0  0  0  0  0  0
  1  2  1  0  0  0  0
M  END
> <PUBCHEM_COMPOUND_CID>
27366

> <PUBCHEM_COMPOUND_CANONICALIZED>
1

> <PUBCHEM_CACTVS_COMPLEXITY>
2

> <PUBCHEM_CACTVS_HBOND_ACCEPTOR>
0

> <PUBCHEM_CACTVS_HBOND_DONOR>
0

> <PUBCHEM_CACTVS_ROTATABLE_BOND>
0

> <PUBCHEM_CACTVS_SUBSKEYS>
AAADcQAAAAAEAAAAAAAAAgAAAAAAAAAAAAAAAAAAAAAAAAAAAAAAAAAAAAAAAAAAAAAAAAAAAAAAAAAAAAAAAAAAAAAAAAAAAAAAAAAAAAAAAAAAAAAAAAAAAAAAAAAAAAAAAAAAAAAAAAAAAAAAAAAAAA==

> <PUBCHEM_IUPAC_OPENEYE_NAME>
chlorogold

> <PUBCHEM_IUPAC_CAS_NAME>
chlorogold

> <PUBCHEM_IUPAC_NAME_MARKUP>
chlorogold

> <PUBCHEM_IUPAC_NAME>
chlorogold

> <PUBCHEM_IUPAC_SYSTEMATIC_NAME>
chloranylgold

> <PUBCHEM_IUPAC_TRADITIONAL_NAME>
chlorogold

> <PUBCHEM_IUPAC_INCHI>
InChI=1S/Au.ClH/h;1H/q+1;/p-1

> <PUBCHEM_IUPAC_INCHIKEY>
FDWREHZXQUYJFJ-UHFFFAOYSA-M

> <PUBCHEM_EXACT_MASS>
231.935423

> <PUBCHEM_MOLECULAR_FORMULA>
AuCl

> <PUBCHEM_MOLECULAR_WEIGHT>
232.42

> <PUBCHEM_SMILES>
Cl[Au]

> <PUBCHEM_CONNECTIVITY_SMILES>
Cl[Au]

> <PUBCHEM_CACTVS_TPSA>
0

> <PUBCHEM_MONOISOTOPIC_WEIGHT>
231.935423

> <PUBCHEM_TOTAL_CHARGE>
0

> <PUBCHEM_HEAVY_ATOM_COUNT>
2

> <PUBCHEM_ATOM_DEF_STEREO_COUNT>
0

> <PUBCHEM_ATOM_UDEF_STEREO_COUNT>
0

> <PUBCHEM_BOND_DEF_STEREO_COUNT>
0

> <PUBCHEM_BOND_UDEF_STEREO_COUNT>
0

> <PUBCHEM_ISOTOPIC_ATOM_COUNT>
0

> <PUBCHEM_COMPONENT_COUNT>
1

> <PUBCHEM_CACTVS_TAUTO_COUNT>
-1

> <PUBCHEM_COORDINATE_TYPE>
1
5
255

$$$$
