22904715
  -OEChem-08152607282D

  3  0  0     0  0  0  0  0  0999 V2000
    3.7321    0.2500    0.0000 Au  0  3  0  0  0  0  0  0  0  0  0  0
    2.0000    0.2500    0.0000 Au  0  3  0  0  0  0  0  0  0  0  0  0
    2.8660   -0.2500    0.0000 S   0  6  0  0  0  0  0  0  0  0  0  0
M  CHG  3   1   1   2   1   3  -2
M  END
> <PUBCHEM_COMPOUND_CID>
22904715

> <PUBCHEM_COMPOUND_CANONICALIZED>
1

> <PUBCHEM_CACTVS_COMPLEXITY>
0

> <PUBCHEM_CACTVS_HBOND_ACCEPTOR>
1

> <PUBCHEM_CACTVS_HBOND_DONOR>
0

> <PUBCHEM_CACTVS_ROTATABLE_BOND>
0

> <PUBCHEM_CACTVS_SUBSKEYS>
AAADcQAAAABAAAAAAAAAAgAAAAAAAAAAAAAAAAAAAAAAAAAAAAAAAAAAAAAAAAAAAAAAAAAAAAAAAAAAAAAAAAAAAAAAAAAAAAAAAAAAAAAAAAAAAAAAAAAAAAAAAAAAAAAAAAAAAAAAAAAAAAAAAAAAAA==

> <PUBCHEM_IUPAC_OPENEYE_NAME>
bis(gold(1+));sulfide

> <PUBCHEM_IUPAC_CAS_NAME>
bis(gold(1+));sulfide

> <PUBCHEM_IUPAC_NAME_MARKUP>
bis(gold(1+));sulfide

> <PUBCHEM_IUPAC_NAME>
bis(gold(1+));sulfide

> <PUBCHEM_IUPAC_SYSTEMATIC_NAME>
bis(gold(1+));sulfide

> <PUBCHEM_IUPAC_TRADITIONAL_NAME>
bis(gold(1+));sulfide

> <PUBCHEM_IUPAC_INCHI>
InChI=1S/2Au.S/q2*+1;-2

> <PUBCHEM_IUPAC_INCHIKEY>
YVIYNOINIIHOCG-UHFFFAOYSA-N

> <PUBCHEM_EXACT_MASS>
425.90521

> <PUBCHEM_MOLECULAR_FORMULA>
Au2S

> <PUBCHEM_MOLECULAR_WEIGHT>
426.00

> <PUBCHEM_SMILES>
[S-2].[Au+].[Au+]

> <PUBCHEM_CONNECTIVITY_SMILES>
[S-2].[Au+].[Au+]

> <PUBCHEM_CACTVS_TPSA>
1

> <PUBCHEM_MONOISOTOPIC_WEIGHT>
425.90521

> <PUBCHEM_TOTAL_CHARGE>
0

> <PUBCHEM_HEAVY_ATOM_COUNT>
3

> <PUBCHEM_ATOM_DEF_STEREO_COUNT>
0

> <PUBCHEM_ATOM_UDEF_STEREO_COUNT>
0

> <PUBCHEM_BOND_DEF_STEREO_COUNT>
0

> <PUBCHEM_BOND_UDEF_STEREO_COUNT>
0

> <PUBCHEM_ISOTOPIC_ATOM_COUNT>
0

> <PUBCHEM_COMPONENT_COUNT>
3

> <PUBCHEM_CACTVS_TAUTO_COUNT>
-1

> <PUBCHEM_COORDINATE_TYPE>
1
5
255

$$$$
