37715
  -OEChem-08152606262D

  5  4  0     0  0  0  0  0  0999 V2000
    2.8660    0.0000    0.0000 Hf  0  0  0  0  0  0  0  0  0  0  0  0
    3.7321    0.5000    0.0000 Cl  0  0  0  0  0  0  0  0  0  0  0  0
    2.0000   -0.5000    0.0000 Cl  0  0  0  0  0  0  0  0  0  0  0  0
    2.3660    0.8660    0.0000 Cl  0  0  0  0  0  0  0  0  0  0  0  0
    3.3660   -0.8660    0.0000 Cl  0  0  0  0  0  0  0  0  0  0  0  0
  1  2  1  0  0  0  0
  1  3  1  0  0  0  0
  1  4  1  0  0  0  0
  1  5  1  0  0  0  0
M  END
> <PUBCHEM_COMPOUND_CID>
37715

> <PUBCHEM_COMPOUND_CANONICALIZED>
1

> <PUBCHEM_CACTVS_COMPLEXITY>
19.1

> <PUBCHEM_CACTVS_HBOND_ACCEPTOR>
0

> <PUBCHEM_CACTVS_HBOND_DONOR>
0

> <PUBCHEM_CACTVS_ROTATABLE_BOND>
0

> <PUBCHEM_CACTVS_SUBSKEYS>
AAADcQAAAAAHAAAAAAABAAAAAAAAAAAAAAAAAAAAAAAAAAAAAAAAAAAAAAAAAAAAAAAAAAAAAAAAAAAAAAAAAAAAAAAAAAAAAAAAAAAAAAAAAAAAAAAAAAAAAAAAAAAAAAAAAAAAAAAAAAAAAAAAAAAAAA==

> <PUBCHEM_IUPAC_OPENEYE_NAME>
tetrachlorohafnium

> <PUBCHEM_IUPAC_CAS_NAME>
tetrachlorohafnium

> <PUBCHEM_IUPAC_NAME_MARKUP>
tetrachlorohafnium

> <PUBCHEM_IUPAC_NAME>
tetrachlorohafnium

> <PUBCHEM_IUPAC_SYSTEMATIC_NAME>
tetrakis(chloranyl)hafnium

> <PUBCHEM_IUPAC_TRADITIONAL_NAME>
tetrachlorohafnium

> <PUBCHEM_IUPAC_INCHI>
InChI=1S/4ClH.Hf/h4*1H;/q;;;;+4/p-4

> <PUBCHEM_IUPAC_INCHIKEY>
PDPJQWYGJJBYLF-UHFFFAOYSA-J

> <PUBCHEM_EXACT_MASS>
321.81902

> <PUBCHEM_MOLECULAR_FORMULA>
Cl4Hf

> <PUBCHEM_MOLECULAR_WEIGHT>
320.3

> <PUBCHEM_SMILES>
Cl[Hf](Cl)(Cl)Cl

> <PUBCHEM_CONNECTIVITY_SMILES>
Cl[Hf](Cl)(Cl)Cl

> <PUBCHEM_CACTVS_TPSA>
0

> <PUBCHEM_MONOISOTOPIC_WEIGHT>
319.82197

> <PUBCHEM_TOTAL_CHARGE>
0

> <PUBCHEM_HEAVY_ATOM_COUNT>
5

> <PUBCHEM_ATOM_DEF_STEREO_COUNT>
0

> <PUBCHEM_ATOM_UDEF_STEREO_COUNT>
0

> <PUBCHEM_BOND_DEF_STEREO_COUNT>
0

> <PUBCHEM_BOND_UDEF_STEREO_COUNT>
0

> <PUBCHEM_ISOTOPIC_ATOM_COUNT>
0

> <PUBCHEM_COMPONENT_COUNT>
1

> <PUBCHEM_CACTVS_TAUTO_COUNT>
-1

> <PUBCHEM_COORDINATE_TYPE>
1
5
255

$$$$
