6336857
  -OEChem-08152605452D

  3  0  0     0  0  0  0  0  0999 V2000
    0.0000    1.2500    0.0000 Hf  0  0  0  0  0  0  0  0  0  0  0  0
    2.5000    0.0000    0.0000 B   0  0  0  0  0 15  0  0  0  0  0  0
    2.5000    2.5000    0.0000 B   0  0  0  0  0 15  0  0  0  0  0  0
M  END
> <PUBCHEM_COMPOUND_CID>
6336857

> <PUBCHEM_COMPOUND_CANONICALIZED>
1

> <PUBCHEM_CACTVS_COMPLEXITY>
0

> <PUBCHEM_CACTVS_HBOND_ACCEPTOR>
0

> <PUBCHEM_CACTVS_HBOND_DONOR>
0

> <PUBCHEM_CACTVS_ROTATABLE_BOND>
0

> <PUBCHEM_CACTVS_SUBSKEYS>
AAADcQMAAAAAAAAAAAABAAAAAAAAAAAAAAAAAAAAAAAAAAAAAAAAAAAAAAAAAAAAAAAAAAAAAAAAAAAAAAAAAAAAAAAAAAAAAAAAAAAAAAAAAAAAAAAAAAAAAAAAAAAAAAAAAAAAAAAAAAAAAAAAAAAAAA==

> <PUBCHEM_IUPAC_INCHI>
InChI=1S/2B.Hf

> <PUBCHEM_IUPAC_INCHIKEY>
LRTTZMZPZHBOPO-UHFFFAOYSA-N

> <PUBCHEM_EXACT_MASS>
201.96517

> <PUBCHEM_MOLECULAR_FORMULA>
B2Hf

> <PUBCHEM_MOLECULAR_WEIGHT>
200.11

> <PUBCHEM_SMILES>
[B].[B].[Hf]

> <PUBCHEM_CONNECTIVITY_SMILES>
[B].[B].[Hf]

> <PUBCHEM_CACTVS_TPSA>
0

> <PUBCHEM_MONOISOTOPIC_WEIGHT>
201.96517

> <PUBCHEM_TOTAL_CHARGE>
0

> <PUBCHEM_HEAVY_ATOM_COUNT>
3

> <PUBCHEM_ATOM_DEF_STEREO_COUNT>
0

> <PUBCHEM_ATOM_UDEF_STEREO_COUNT>
0

> <PUBCHEM_BOND_DEF_STEREO_COUNT>
0

> <PUBCHEM_BOND_UDEF_STEREO_COUNT>
0

> <PUBCHEM_ISOTOPIC_ATOM_COUNT>
0

> <PUBCHEM_COMPONENT_COUNT>
3

> <PUBCHEM_CACTVS_TAUTO_COUNT>
-1

> <PUBCHEM_COORDINATE_TYPE>
1
5
255

$$$$
