168009944
  -OEChem-08152606302D

151160  0     1  0  0  0  0  0999 V2000
    3.1882    9.5336    0.0000 Cl  0  0  0  0  0  0  0  0  0  0  0  0
   15.0620    8.8156    0.0000 Cl  0  0  0  0  0  0  0  0  0  0  0  0
    4.9203   12.5336    0.0000 F   0  0  0  0  0  0  0  0  0  0  0  0
   16.7941   11.8156    0.0000 F   0  0  0  0  0  0  0  0  0  0  0  0
    5.7622    5.0093    0.0000 O   0  0  0  0  0  0  0  0  0  0  0  0
   17.6360    4.2912    0.0000 O   0  0  0  0  0  0  0  0  0  0  0  0
    8.4504   11.5578    0.0000 O   0  0  0  0  0  0  0  0  0  0  0  0
   20.3242   10.8397    0.0000 O   0  0  0  0  0  0  0  0  0  0  0  0
    2.3222   14.0336    0.0000 O   0  0  0  0  0  0  0  0  0  0  0  0
   14.1960   13.3156    0.0000 O   0  0  0  0  0  0  0  0  0  0  0  0
    6.6455    6.4992    0.0000 N   0  0  0  0  0  0  0  0  0  0  0  0
    6.6687    8.4990    0.0000 N   0  0  3  0  0  0  0  0  0  0  0  0
   18.5193    5.7811    0.0000 N   0  0  0  0  0  0  0  0  0  0  0  0
   18.5425    7.7810    0.0000 N   0  0  3  0  0  0  0  0  0  0  0  0
    8.3312    2.4794    0.0000 N   0  0  0  0  0  0  0  0  0  0  0  0
    7.5863   10.0128    0.0000 N   0  0  0  0  0  0  0  0  0  0  0  0
   19.4601    9.2948    0.0000 N   0  0  0  0  0  0  0  0  0  0  0  0
    6.6802   11.5683    0.0000 N   0  0  0  0  0  0  0  0  0  0  0  0
   18.5540   10.8502    0.0000 N   0  0  0  0  0  0  0  0  0  0  0  0
    3.1932    7.5391    0.0000 N   0  0  0  0  0  0  0  0  0  0  0  0
   15.0670    6.8211    0.0000 N   0  0  0  0  0  0  0  0  0  0  0  0
   20.2050    1.7613    0.0000 N   0  0  0  0  0  0  0  0  0  0  0  0
    5.7854    7.0091    0.0000 C   0  0  3  0  0  0  0  0  0  0  0  0
    5.7969    8.0091    0.0000 C   0  0  0  0  0  0  0  0  0  0  0  0
   17.6592    6.2911    0.0000 C   0  0  3  0  0  0  0  0  0  0  0  0
    7.5173    6.9891    0.0000 C   0  0  0  0  0  0  0  0  0  0  0  0
    7.5289    7.9890    0.0000 C   0  0  0  0  0  0  0  0  0  0  0  0
   17.6707    7.2910    0.0000 C   0  0  0  0  0  0  0  0  0  0  0  0
   19.3911    6.2711    0.0000 C   0  0  0  0  0  0  0  0  0  0  0  0
   19.4027    7.2710    0.0000 C   0  0  0  0  0  0  0  0  0  0  0  0
    4.9136    6.5192    0.0000 C   0  0  0  0  0  0  0  0  0  0  0  0
    7.4595    1.9894    0.0000 C   0  0  0  0  0  0  0  0  0  0  0  0
    9.1914    1.9694    0.0000 C   0  0  0  0  0  0  0  0  0  0  0  0
    7.4479    0.9895    0.0000 C   0  0  0  0  0  0  0  0  0  0  0  0
    9.1798    0.9695    0.0000 C   0  0  0  0  0  0  0  0  0  0  0  0
   16.7874    5.8011    0.0000 C   0  0  0  0  0  0  0  0  0  0  0  0
    8.3081    0.4795    0.0000 C   0  0  0  0  0  0  0  0  0  0  0  0
    6.6802    9.4990    0.0000 C   0  0  0  0  0  0  0  0  0  0  0  0
    6.6340    5.4992    0.0000 C   0  0  0  0  0  0  0  0  0  0  0  0
   18.5540    8.7809    0.0000 C   0  0  0  0  0  0  0  0  0  0  0  0
    8.3428    3.4793    0.0000 C   0  0  0  0  0  0  0  0  0  0  0  0
   18.5078    4.7812    0.0000 C   0  0  0  0  0  0  0  0  0  0  0  0
    5.7863   10.0336    0.0000 C   0  0  0  0  0  0  0  0  0  0  0  0
    7.4942    4.9892    0.0000 C   0  0  0  0  0  0  0  0  0  0  0  0
    7.4826    3.9893    0.0000 C   0  0  0  0  0  0  0  0  0  0  0  0
   17.6601    9.3156    0.0000 C   0  0  0  0  0  0  0  0  0  0  0  0
    4.0534    7.0292    0.0000 C   0  0  0  0  0  0  0  0  0  0  0  0
    5.7863   11.0336    0.0000 C   0  0  0  0  0  0  0  0  0  0  0  0
   17.6601   10.3156    0.0000 C   0  0  0  0  0  0  0  0  0  0  0  0
   15.9272    6.3111    0.0000 C   0  0  0  0  0  0  0  0  0  0  0  0
    4.9203    9.5336    0.0000 C   0  0  0  0  0  0  0  0  0  0  0  0
   19.3680    4.2712    0.0000 C   0  0  0  0  0  0  0  0  0  0  0  0
   16.7941    8.8156    0.0000 C   0  0  0  0  0  0  0  0  0  0  0  0
    7.5863   11.0544    0.0000 C   0  0  0  0  0  0  0  0  0  0  0  0
    4.9203   11.5336    0.0000 C   0  0  0  0  0  0  0  0  0  0  0  0
    4.0542   11.0336    0.0000 C   0  0  0  0  0  0  0  0  0  0  0  0
    4.0542   10.0336    0.0000 C   0  0  0  0  0  0  0  0  0  0  0  0
   19.4601   10.3364    0.0000 C   0  0  0  0  0  0  0  0  0  0  0  0
   16.7941   10.8156    0.0000 C   0  0  0  0  0  0  0  0  0  0  0  0
   15.9280   10.3156    0.0000 C   0  0  0  0  0  0  0  0  0  0  0  0
   15.9280    9.3156    0.0000 C   0  0  0  0  0  0  0  0  0  0  0  0
   19.3564    3.2713    0.0000 C   0  0  0  0  0  0  0  0  0  0  0  0
    3.1882   11.5336    0.0000 C   0  0  0  0  0  0  0  0  0  0  0  0
   15.0620   10.8156    0.0000 C   0  0  0  0  0  0  0  0  0  0  0  0
   20.2166    2.7613    0.0000 C   0  0  0  0  0  0  0  0  0  0  0  0
    2.3222   11.0336    0.0000 C   0  0  0  0  0  0  0  0  0  0  0  0
   14.1960   10.3156    0.0000 C   0  0  0  0  0  0  0  0  0  0  0  0
    3.1882   12.5336    0.0000 C   0  0  0  0  0  0  0  0  0  0  0  0
   15.0620   11.8156    0.0000 C   0  0  0  0  0  0  0  0  0  0  0  0
    1.4562   11.5336    0.0000 C   0  0  0  0  0  0  0  0  0  0  0  0
   13.3300   10.8156    0.0000 C   0  0  0  0  0  0  0  0  0  0  0  0
    9.3183   11.0611    0.0000 C   0  0  0  0  0  0  0  0  0  0  0  0
    2.3222   13.0336    0.0000 C   0  0  0  0  0  0  0  0  0  0  0  0
    2.3382    9.9921    0.0000 C   0  0  0  0  0  0  0  0  0  0  0  0
    1.4562   12.5336    0.0000 C   0  0  0  0  0  0  0  0  0  0  0  0
   14.1960   12.3156    0.0000 C   0  0  0  0  0  0  0  0  0  0  0  0
   21.1921   10.3431    0.0000 C   0  0  0  0  0  0  0  0  0  0  0  0
   14.2120    9.2741    0.0000 C   0  0  0  0  0  0  0  0  0  0  0  0
   13.3300   11.8156    0.0000 C   0  0  0  0  0  0  0  0  0  0  0  0
   21.0652    1.2514    0.0000 C   0  0  0  0  0  0  0  0  0  0  0  0
   19.3333    1.2714    0.0000 C   0  0  0  0  0  0  0  0  0  0  0  0
    0.5462   11.0268    0.0000 C   0  0  0  0  0  0  0  0  0  0  0  0
   12.4200   10.3087    0.0000 C   0  0  0  0  0  0  0  0  0  0  0  0
    1.4402    9.4644    0.0000 C   0  0  0  0  0  0  0  0  0  0  0  0
   13.3140    8.7463    0.0000 C   0  0  0  0  0  0  0  0  0  0  0  0
    0.5381    9.9852    0.0000 C   0  0  0  0  0  0  0  0  0  0  0  0
   12.4119    9.2671    0.0000 C   0  0  0  0  0  0  0  0  0  0  0  0
    5.7782    6.3892    0.0000 H   0  0  0  0  0  0  0  0  0  0  0  0
    5.5916    8.5941    0.0000 H   0  0  0  0  0  0  0  0  0  0  0  0
    5.1851    7.9085    0.0000 H   0  0  0  0  0  0  0  0  0  0  0  0
   17.6520    5.6711    0.0000 H   0  0  0  0  0  0  0  0  0  0  0  0
    7.7226    6.4041    0.0000 H   0  0  0  0  0  0  0  0  0  0  0  0
    8.1291    7.0897    0.0000 H   0  0  0  0  0  0  0  0  0  0  0  0
    8.1381    7.8743    0.0000 H   0  0  0  0  0  0  0  0  0  0  0  0
    7.7476    8.5692    0.0000 H   0  0  0  0  0  0  0  0  0  0  0  0
   17.4654    7.8760    0.0000 H   0  0  0  0  0  0  0  0  0  0  0  0
   17.0589    7.1904    0.0000 H   0  0  0  0  0  0  0  0  0  0  0  0
   19.5964    5.6860    0.0000 H   0  0  0  0  0  0  0  0  0  0  0  0
   20.0029    6.3717    0.0000 H   0  0  0  0  0  0  0  0  0  0  0  0
   20.0119    7.1563    0.0000 H   0  0  0  0  0  0  0  0  0  0  0  0
   19.6214    7.8511    0.0000 H   0  0  0  0  0  0  0  0  0  0  0  0
    4.5096    6.0489    0.0000 H   0  0  0  0  0  0  0  0  0  0  0  0
    5.3066    6.0397    0.0000 H   0  0  0  0  0  0  0  0  0  0  0  0
    7.2542    2.5745    0.0000 H   0  0  0  0  0  0  0  0  0  0  0  0
    6.8477    1.8888    0.0000 H   0  0  0  0  0  0  0  0  0  0  0  0
    9.8007    1.8547    0.0000 H   0  0  0  0  0  0  0  0  0  0  0  0
    9.4102    2.5495    0.0000 H   0  0  0  0  0  0  0  0  0  0  0  0
    6.8386    1.1042    0.0000 H   0  0  0  0  0  0  0  0  0  0  0  0
    7.2291    0.4094    0.0000 H   0  0  0  0  0  0  0  0  0  0  0  0
    9.3851    0.3845    0.0000 H   0  0  0  0  0  0  0  0  0  0  0  0
    9.7916    1.0701    0.0000 H   0  0  0  0  0  0  0  0  0  0  0  0
   16.3834    5.3308    0.0000 H   0  0  0  0  0  0  0  0  0  0  0  0
   17.1804    5.3216    0.0000 H   0  0  0  0  0  0  0  0  0  0  0  0
    7.9041    0.0092    0.0000 H   0  0  0  0  0  0  0  0  0  0  0  0
    8.7011    0.0000    0.0000 H   0  0  0  0  0  0  0  0  0  0  0  0
    8.9521    3.3646    0.0000 H   0  0  0  0  0  0  0  0  0  0  0  0
    8.5616    4.0594    0.0000 H   0  0  0  0  0  0  0  0  0  0  0  0
    8.0347    5.2930    0.0000 H   0  0  0  0  0  0  0  0  0  0  0  0
    6.9421    3.6855    0.0000 H   0  0  0  0  0  0  0  0  0  0  0  0
    4.9203    8.9136    0.0000 H   0  0  0  0  0  0  0  0  0  0  0  0
   19.9084    4.5750    0.0000 H   0  0  0  0  0  0  0  0  0  0  0  0
   16.7941    8.1956    0.0000 H   0  0  0  0  0  0  0  0  0  0  0  0
   18.8159    2.9675    0.0000 H   0  0  0  0  0  0  0  0  0  0  0  0
   20.8259    2.6466    0.0000 H   0  0  0  0  0  0  0  0  0  0  0  0
   20.4354    3.3414    0.0000 H   0  0  0  0  0  0  0  0  0  0  0  0
    3.7251   12.8436    0.0000 H   0  0  0  0  0  0  0  0  0  0  0  0
   15.5989   12.1256    0.0000 H   0  0  0  0  0  0  0  0  0  0  0  0
    9.0104   10.5230    0.0000 H   0  0  0  0  0  0  0  0  0  0  0  0
    9.8565   10.7532    0.0000 H   0  0  0  0  0  0  0  0  0  0  0  0
    9.6263   11.5992    0.0000 H   0  0  0  0  0  0  0  0  0  0  0  0
    2.8787    9.6883    0.0000 H   0  0  0  0  0  0  0  0  0  0  0  0
    0.9192   12.8436    0.0000 H   0  0  0  0  0  0  0  0  0  0  0  0
   20.8842    9.8049    0.0000 H   0  0  0  0  0  0  0  0  0  0  0  0
   21.7303   10.0351    0.0000 H   0  0  0  0  0  0  0  0  0  0  0  0
   21.5001   10.8812    0.0000 H   0  0  0  0  0  0  0  0  0  0  0  0
   14.7525    8.9703    0.0000 H   0  0  0  0  0  0  0  0  0  0  0  0
   12.7930   12.1256    0.0000 H   0  0  0  0  0  0  0  0  0  0  0  0
   20.7490    0.7180    0.0000 H   0  0  0  0  0  0  0  0  0  0  0  0
   21.5985    0.9352    0.0000 H   0  0  0  0  0  0  0  0  0  0  0  0
   21.3814    1.7847    0.0000 H   0  0  0  0  0  0  0  0  0  0  0  0
   19.0295    1.8119    0.0000 H   0  0  0  0  0  0  0  0  0  0  0  0
   18.7928    0.9676    0.0000 H   0  0  0  0  0  0  0  0  0  0  0  0
   19.6370    0.7309    0.0000 H   0  0  0  0  0  0  0  0  0  0  0  0
    0.0128   11.3430    0.0000 H   0  0  0  0  0  0  0  0  0  0  0  0
   11.8866   10.6249    0.0000 H   0  0  0  0  0  0  0  0  0  0  0  0
    1.4426    8.8444    0.0000 H   0  0  0  0  0  0  0  0  0  0  0  0
   13.3164    8.1263    0.0000 H   0  0  0  0  0  0  0  0  0  0  0  0
    0.0000    9.6772    0.0000 H   0  0  0  0  0  0  0  0  0  0  0  0
   11.8738    8.9592    0.0000 H   0  0  0  0  0  0  0  0  0  0  0  0
    1.7853   14.3436    0.0000 H   0  0  0  0  0  0  0  0  0  0  0  0
   13.6591   13.6256    0.0000 H   0  0  0  0  0  0  0  0  0  0  0  0
  1 57  1  0  0  0  0
  2 61  1  0  0  0  0
  3 55  1  0  0  0  0
  4 59  1  0  0  0  0
  5 39  2  0  0  0  0
  6 42  2  0  0  0  0
  7 54  1  0  0  0  0
  7 72  1  0  0  0  0
  8 58  1  0  0  0  0
  8 77  1  0  0  0  0
  9 73  1  0  0  0  0
  9150  1  0  0  0  0
 10 76  1  0  0  0  0
 10151  1  0  0  0  0
 11 23  1  0  0  0  0
 11 26  1  0  0  0  0
 11 39  1  0  0  0  0
 12 24  1  0  0  0  0
 12 27  1  0  0  0  0
 12 38  1  0  0  0  0
 13 25  1  0  0  0  0
 13 29  1  0  0  0  0
 13 42  1  0  0  0  0
 14 28  1  0  0  0  0
 14 30  1  0  0  0  0
 14 40  1  0  0  0  0
 15 32  1  0  0  0  0
 15 33  1  0  0  0  0
 15 41  1  0  0  0  0
 16 38  2  0  0  0  0
 16 54  1  0  0  0  0
 17 40  2  0  0  0  0
 17 58  1  0  0  0  0
 18 48  1  0  0  0  0
 18 54  2  0  0  0  0
 19 49  1  0  0  0  0
 19 58  2  0  0  0  0
 20 47  3  0  0  0  0
 21 50  3  0  0  0  0
 22 65  1  0  0  0  0
 22 80  1  0  0  0  0
 22 81  1  0  0  0  0
 23 24  1  0  0  0  0
 23 31  1  0  0  0  0
 23 88  1  0  0  0  0
 24 89  1  0  0  0  0
 24 90  1  0  0  0  0
 25 28  1  0  0  0  0
 25 36  1  0  0  0  0
 25 91  1  0  0  0  0
 26 27  1  0  0  0  0
 26 92  1  0  0  0  0
 26 93  1  0  0  0  0
 27 94  1  0  0  0  0
 27 95  1  0  0  0  0
 28 96  1  0  0  0  0
 28 97  1  0  0  0  0
 29 30  1  0  0  0  0
 29 98  1  0  0  0  0
 29 99  1  0  0  0  0
 30100  1  0  0  0  0
 30101  1  0  0  0  0
 31 47  1  0  0  0  0
 31102  1  0  0  0  0
 31103  1  0  0  0  0
 32 34  1  0  0  0  0
 32104  1  0  0  0  0
 32105  1  0  0  0  0
 33 35  1  0  0  0  0
 33106  1  0  0  0  0
 33107  1  0  0  0  0
 34 37  1  0  0  0  0
 34108  1  0  0  0  0
 34109  1  0  0  0  0
 35 37  1  0  0  0  0
 35110  1  0  0  0  0
 35111  1  0  0  0  0
 36 50  1  0  0  0  0
 36112  1  0  0  0  0
 36113  1  0  0  0  0
 37114  1  0  0  0  0
 37115  1  0  0  0  0
 38 43  1  0  0  0  0
 39 44  1  0  0  0  0
 40 46  1  0  0  0  0
 41 45  1  0  0  0  0
 41116  1  0  0  0  0
 41117  1  0  0  0  0
 42 52  1  0  0  0  0
 43 48  1  0  0  0  0
 43 51  2  0  0  0  0
 44 45  2  3  0  0  0
 44118  1  0  0  0  0
 45119  1  0  0  0  0
 46 49  1  0  0  0  0
 46 53  2  0  0  0  0
 48 55  2  0  0  0  0
 49 59  2  0  0  0  0
 51 57  1  0  0  0  0
 51120  1  0  0  0  0
 52 62  2  3  0  0  0
 52121  1  0  0  0  0
 53 61  1  0  0  0  0
 53122  1  0  0  0  0
 55 56  1  0  0  0  0
 56 57  2  0  0  0  0
 56 63  1  0  0  0  0
 59 60  1  0  0  0  0
 60 61  2  0  0  0  0
 60 64  1  0  0  0  0
 62 65  1  0  0  0  0
 62123  1  0  0  0  0
 63 66  1  0  0  0  0
 63 68  2  0  0  0  0
 64 67  1  0  0  0  0
 64 69  2  0  0  0  0
 65124  1  0  0  0  0
 65125  1  0  0  0  0
 66 70  1  0  0  0  0
 66 74  2  0  0  0  0
 67 71  1  0  0  0  0
 67 78  2  0  0  0  0
 68 73  1  0  0  0  0
 68126  1  0  0  0  0
 69 76  1  0  0  0  0
 69127  1  0  0  0  0
 70 75  1  0  0  0  0
 70 82  2  0  0  0  0
 71 79  1  0  0  0  0
 71 83  2  0  0  0  0
 72128  1  0  0  0  0
 72129  1  0  0  0  0
 72130  1  0  0  0  0
 73 75  2  0  0  0  0
 74 84  1  0  0  0  0
 74131  1  0  0  0  0
 75132  1  0  0  0  0
 76 79  2  0  0  0  0
 77133  1  0  0  0  0
 77134  1  0  0  0  0
 77135  1  0  0  0  0
 78 85  1  0  0  0  0
 78136  1  0  0  0  0
 79137  1  0  0  0  0
 80138  1  0  0  0  0
 80139  1  0  0  0  0
 80140  1  0  0  0  0
 81141  1  0  0  0  0
 81142  1  0  0  0  0
 81143  1  0  0  0  0
 82 86  1  0  0  0  0
 82144  1  0  0  0  0
 83 87  1  0  0  0  0
 83145  1  0  0  0  0
 84 86  2  0  0  0  0
 84146  1  0  0  0  0
 85 87  2  0  0  0  0
 85147  1  0  0  0  0
 86148  1  0  0  0  0
 87149  1  0  0  0  0
M  END
> <PUBCHEM_COMPOUND_CID>
168009944

> <PUBCHEM_COMPOUND_CANONICALIZED>
1

> <PUBCHEM_CACTVS_COMPLEXITY>
2100

> <PUBCHEM_CACTVS_HBOND_ACCEPTOR>
18

> <PUBCHEM_CACTVS_HBOND_DONOR>
2

> <PUBCHEM_CACTVS_ROTATABLE_BOND>
14

> <PUBCHEM_CACTVS_SUBSKEYS>
AAADcfB/+YAGAAAAAAAAAAAAAAAAAAAAAAA8ePHjwAAAAADx/gAAHwIACAAADC7Bni4z9vcIFgC4BydydACCgCkhJaAJmCAuTtiI7qLD29OUdAhsxhPI2a+QwPAO4ABDYAATAADAAIbAACYAAAAAAAAAAA==

> <PUBCHEM_IUPAC_OPENEYE_NAME>
2-[4-[6-chloro-8-fluoro-7-(3-hydroxy-1-naphthyl)-2-methoxy-quinazolin-4-yl]-1-[4-(dimethylamino)but-2-enoyl]piperazin-2-yl]acetonitrile;2-[4-[6-chloro-8-fluoro-7-(3-hydroxy-1-naphthyl)-2-methoxy-quinazolin-4-yl]-1-[4-(1-piperidyl)but-2-enoyl]piperazin-2-yl]acetonitrile

> <PUBCHEM_IUPAC_CAS_NAME>
2-[4-[6-chloro-8-fluoro-7-(3-hydroxy-1-naphthalenyl)-2-methoxy-4-quinazolinyl]-1-[4-(dimethylamino)-1-oxobut-2-enyl]-2-piperazinyl]acetonitrile;2-[4-[6-chloro-8-fluoro-7-(3-hydroxy-1-naphthalenyl)-2-methoxy-4-quinazolinyl]-1-[1-oxo-4-(1-piperidinyl)but-2-enyl]-2-piperazinyl]acetonitrile

> <PUBCHEM_IUPAC_NAME_MARKUP>
2-[4-[6-chloro-8-fluoro-7-(3-hydroxynaphthalen-1-yl)-2-methoxyquinazolin-4-yl]-1-[4-(dimethylamino)but-2-enoyl]piperazin-2-yl]acetonitrile;2-[4-[6-chloro-8-fluoro-7-(3-hydroxynaphthalen-1-yl)-2-methoxyquinazolin-4-yl]-1-(4-piperidin-1-ylbut-2-enoyl)piperazin-2-yl]acetonitrile

> <PUBCHEM_IUPAC_NAME>
2-[4-[6-chloro-8-fluoro-7-(3-hydroxynaphthalen-1-yl)-2-methoxyquinazolin-4-yl]-1-[4-(dimethylamino)but-2-enoyl]piperazin-2-yl]acetonitrile;2-[4-[6-chloro-8-fluoro-7-(3-hydroxynaphthalen-1-yl)-2-methoxyquinazolin-4-yl]-1-(4-piperidin-1-ylbut-2-enoyl)piperazin-2-yl]acetonitrile

> <PUBCHEM_IUPAC_SYSTEMATIC_NAME>
2-[4-[6-chloranyl-8-fluoranyl-2-methoxy-7-(3-oxidanylnaphthalen-1-yl)quinazolin-4-yl]-1-[4-(dimethylamino)but-2-enoyl]piperazin-2-yl]ethanenitrile;2-[4-[6-chloranyl-8-fluoranyl-2-methoxy-7-(3-oxidanylnaphthalen-1-yl)quinazolin-4-yl]-1-(4-piperidin-1-ylbut-2-enoyl)piperazin-2-yl]ethanenitrile

> <PUBCHEM_IUPAC_TRADITIONAL_NAME>
2-[4-[6-chloro-8-fluoro-7-(3-hydroxy-1-naphthyl)-2-methoxy-quinazolin-4-yl]-1-[4-(dimethylamino)but-2-enoyl]piperazin-2-yl]acetonitrile;2-[4-[6-chloro-8-fluoro-7-(3-hydroxy-1-naphthyl)-2-methoxy-quinazolin-4-yl]-1-(4-piperidinobut-2-enoyl)piperazin-2-yl]acetonitrile

> <PUBCHEM_IUPAC_INCHI>
InChI=1S/C34H34ClFN6O3.C31H30ClFN6O3/c1-45-34-38-32-27(20-28(35)30(31(32)36)26-19-24(43)18-22-8-3-4-9-25(22)26)33(39-34)41-16-17-42(23(21-41)11-12-37)29(44)10-7-15-40-13-5-2-6-14-40;1-37(2)12-6-9-26(41)39-14-13-38(18-20(39)10-11-34)30-24-17-25(32)27(28(33)29(24)35-31(36-30)42-3)23-16-21(40)15-19-7-4-5-8-22(19)23/h3-4,7-10,18-20,23,43H,2,5-6,11,13-17,21H2,1H3;4-9,15-17,20,40H,10,12-14,18H2,1-3H3

> <PUBCHEM_IUPAC_INCHIKEY>
UHBNYCJTNLWVPM-UHFFFAOYSA-N

> <PUBCHEM_EXACT_MASS>
1216.4416895

> <PUBCHEM_MOLECULAR_FORMULA>
C65H64Cl2F2N12O6

> <PUBCHEM_MOLECULAR_WEIGHT>
1218.2

> <PUBCHEM_SMILES>
CN(C)CC=CC(=O)N1CCN(CC1CC#N)C2=NC(=NC3=C(C(=C(C=C32)Cl)C4=CC(=CC5=CC=CC=C54)O)F)OC.COC1=NC2=C(C(=C(C=C2C(=N1)N3CCN(C(C3)CC#N)C(=O)C=CCN4CCCCC4)Cl)C5=CC(=CC6=CC=CC=C65)O)F

> <PUBCHEM_CONNECTIVITY_SMILES>
CN(C)CC=CC(=O)N1CCN(CC1CC#N)C2=NC(=NC3=C(C(=C(C=C32)Cl)C4=CC(=CC5=CC=CC=C54)O)F)OC.COC1=NC2=C(C(=C(C=C2C(=N1)N3CCN(C(C3)CC#N)C(=O)C=CCN4CCCCC4)Cl)C5=CC(=CC6=CC=CC=C65)O)F

> <PUBCHEM_CACTVS_TPSA>
212

> <PUBCHEM_MONOISOTOPIC_WEIGHT>
1216.4416895

> <PUBCHEM_TOTAL_CHARGE>
0

> <PUBCHEM_HEAVY_ATOM_COUNT>
87

> <PUBCHEM_ATOM_DEF_STEREO_COUNT>
0

> <PUBCHEM_ATOM_UDEF_STEREO_COUNT>
2

> <PUBCHEM_BOND_DEF_STEREO_COUNT>
0

> <PUBCHEM_BOND_UDEF_STEREO_COUNT>
2

> <PUBCHEM_ISOTOPIC_ATOM_COUNT>
0

> <PUBCHEM_COMPONENT_COUNT>
2

> <PUBCHEM_CACTVS_TAUTO_COUNT>
-1

> <PUBCHEM_COORDINATE_TYPE>
1
5
255

> <PUBCHEM_BONDANNOTATIONS>
16  38  8
16  54  8
17  40  8
17  58  8
18  48  8
18  54  8
19  49  8
19  58  8
23  31  3
25  36  3
38  43  8
40  46  8
43  48  8
43  51  8
44  45  1
46  49  8
46  53  8
48  55  8
49  59  8
51  57  8
52  62  1
53  61  8
55  56  8
56  57  8
59  60  8
60  61  8
63  66  8
63  68  8
64  67  8
64  69  8
66  70  8
66  74  8
67  71  8
67  78  8
68  73  8
69  76  8
70  75  8
70  82  8
71  79  8
71  83  8
73  75  8
74  84  8
76  79  8
78  85  8
82  86  8
83  87  8
84  86  8
85  87  8

$$$$
