83726
  -OEChem-08152607412D

  5  4  0     0  0  0  0  0  0999 V2000
    2.8660    0.0000    0.0000 Hf  0  0  0  0  0  0  0  0  0  0  0  0
    3.7321    0.5000    0.0000 I   0  0  0  0  0  0  0  0  0  0  0  0
    2.0000   -0.5000    0.0000 I   0  0  0  0  0  0  0  0  0  0  0  0
    2.3660    0.8660    0.0000 I   0  0  0  0  0  0  0  0  0  0  0  0
    3.3660   -0.8660    0.0000 I   0  0  0  0  0  0  0  0  0  0  0  0
  1  2  1  0  0  0  0
  1  3  1  0  0  0  0
  1  4  1  0  0  0  0
  1  5  1  0  0  0  0
M  END
> <PUBCHEM_COMPOUND_CID>
83726

> <PUBCHEM_COMPOUND_CANONICALIZED>
1

> <PUBCHEM_CACTVS_COMPLEXITY>
19.1

> <PUBCHEM_CACTVS_HBOND_ACCEPTOR>
0

> <PUBCHEM_CACTVS_HBOND_DONOR>
0

> <PUBCHEM_CACTVS_ROTATABLE_BOND>
0

> <PUBCHEM_CACTVS_SUBSKEYS>
AAADcQAAAAAAA4AAAAABAAAAAAAAAAAAAAAAAAAAAAAAAAAAAAAAAAAAAAAAAAAAAAAAAAAAAAAAAAAAAAAAAAAAAAAAAAAAAAAAAAAAAAAAAAAAAAAAAAAAAAAAAAAAAAAAAAAAAAAAAAAAAAAAAAAAAA==

> <PUBCHEM_IUPAC_OPENEYE_NAME>
tetraiodohafnium

> <PUBCHEM_IUPAC_CAS_NAME>
tetraiodohafnium

> <PUBCHEM_IUPAC_NAME_MARKUP>
tetraiodohafnium

> <PUBCHEM_IUPAC_NAME>
tetraiodohafnium

> <PUBCHEM_IUPAC_SYSTEMATIC_NAME>
tetrakis(iodanyl)hafnium

> <PUBCHEM_IUPAC_TRADITIONAL_NAME>
tetraiodohafnium

> <PUBCHEM_IUPAC_INCHI>
InChI=1S/Hf.4HI/h;4*1H/q+4;;;;/p-4

> <PUBCHEM_IUPAC_INCHIKEY>
YCJQNNVSZNFWAH-UHFFFAOYSA-J

> <PUBCHEM_EXACT_MASS>
687.5644

> <PUBCHEM_MOLECULAR_FORMULA>
HfI4

> <PUBCHEM_MOLECULAR_WEIGHT>
686.10

> <PUBCHEM_SMILES>
I[Hf](I)(I)I

> <PUBCHEM_CONNECTIVITY_SMILES>
I[Hf](I)(I)I

> <PUBCHEM_CACTVS_TPSA>
0

> <PUBCHEM_MONOISOTOPIC_WEIGHT>
687.5644

> <PUBCHEM_TOTAL_CHARGE>
0

> <PUBCHEM_HEAVY_ATOM_COUNT>
5

> <PUBCHEM_ATOM_DEF_STEREO_COUNT>
0

> <PUBCHEM_ATOM_UDEF_STEREO_COUNT>
0

> <PUBCHEM_BOND_DEF_STEREO_COUNT>
0

> <PUBCHEM_BOND_UDEF_STEREO_COUNT>
0

> <PUBCHEM_ISOTOPIC_ATOM_COUNT>
0

> <PUBCHEM_COMPONENT_COUNT>
1

> <PUBCHEM_CACTVS_TAUTO_COUNT>
-1

> <PUBCHEM_COORDINATE_TYPE>
1
5
255

$$$$
