101527077
  -OEChem-08152607282D

  6  2  0     0  0  0  0  0  0999 V2000
    0.2869    0.0000    0.0000 Hf  0  0  0  0  0  0  0  0  0  0  0  0
    3.0739    0.0000    0.0000 Cl  0  5  0  0  0  0  0  0  0  0  0  0
    3.0739    2.5000    0.0000 Cl  0  5  0  0  0  0  0  0  0  0  0  0
    0.5369    2.5000    0.0000 O   0  0  0  0  0  0  0  0  0  0  0  0
    1.0739    2.8100    0.0000 H   0  0  0  0  0  0  0  0  0  0  0  0
    0.0000    2.8100    0.0000 H   0  0  0  0  0  0  0  0  0  0  0  0
  4  5  1  0  0  0  0
  4  6  1  0  0  0  0
M  CHG  2   2  -1   3  -1
M  END
> <PUBCHEM_COMPOUND_CID>
101527077

> <PUBCHEM_COMPOUND_CANONICALIZED>
1

> <PUBCHEM_CACTVS_COMPLEXITY>
0

> <PUBCHEM_CACTVS_HBOND_ACCEPTOR>
3

> <PUBCHEM_CACTVS_HBOND_DONOR>
1

> <PUBCHEM_CACTVS_ROTATABLE_BOND>
0

> <PUBCHEM_CACTVS_SUBSKEYS>
AAADcQAAIAAGAAAAAAABAAAAAAAAAAAAAAAAAAAAAAAAAAAAAAAAAAAACAAAAAAAAAAAAAAAAAAAAAAAAAAAAAAAAAAAAAAAAAAAAAAAAAAAAAAAAAAAAAAAAAAAAAAAAAAAAAAAAAAAAAAAAAAAAAAAAA==

> <PUBCHEM_IUPAC_OPENEYE_NAME>
hafnium;dichloride;hydrate

> <PUBCHEM_IUPAC_CAS_NAME>
hafnium;dichloride;hydrate

> <PUBCHEM_IUPAC_NAME_MARKUP>
hafnium;dichloride;hydrate

> <PUBCHEM_IUPAC_NAME>
hafnium;dichloride;hydrate

> <PUBCHEM_IUPAC_SYSTEMATIC_NAME>
hafnium;dichloride;hydrate

> <PUBCHEM_IUPAC_TRADITIONAL_NAME>
hafnium;dichloride;hydrate

> <PUBCHEM_IUPAC_INCHI>
InChI=1S/2ClH.Hf.H2O/h2*1H;;1H2/p-2

> <PUBCHEM_IUPAC_INCHIKEY>
YXKUDFUGCXUQJD-UHFFFAOYSA-L

> <PUBCHEM_EXACT_MASS>
267.89483

> <PUBCHEM_MOLECULAR_FORMULA>
Cl2H2HfO-2

> <PUBCHEM_MOLECULAR_WEIGHT>
267.40

> <PUBCHEM_SMILES>
O.[Cl-].[Cl-].[Hf]

> <PUBCHEM_CONNECTIVITY_SMILES>
O.[Cl-].[Cl-].[Hf]

> <PUBCHEM_CACTVS_TPSA>
1

> <PUBCHEM_MONOISOTOPIC_WEIGHT>
267.89483

> <PUBCHEM_TOTAL_CHARGE>
-2

> <PUBCHEM_HEAVY_ATOM_COUNT>
4

> <PUBCHEM_ATOM_DEF_STEREO_COUNT>
0

> <PUBCHEM_ATOM_UDEF_STEREO_COUNT>
0

> <PUBCHEM_BOND_DEF_STEREO_COUNT>
0

> <PUBCHEM_BOND_UDEF_STEREO_COUNT>
0

> <PUBCHEM_ISOTOPIC_ATOM_COUNT>
0

> <PUBCHEM_COMPONENT_COUNT>
4

> <PUBCHEM_CACTVS_TAUTO_COUNT>
-1

> <PUBCHEM_COORDINATE_TYPE>
1
5
255

$$$$
