159457
  -OEChem-08152606312D

  3  0  0     0  0  0  0  0  0999 V2000
    2.5000    2.5000    0.0000 Hf  0  0  0  0  0  0  0  0  0  0  0  0
    0.0000    1.2500    0.0000 H   0  5  0  0  0  0  0  0  0  0  0  0
    2.5000    0.0000    0.0000 H   0  5  0  0  0  0  0  0  0  0  0  0
M  CHG  2   2  -1   3  -1
M  END
> <PUBCHEM_COMPOUND_CID>
159457

> <PUBCHEM_COMPOUND_CANONICALIZED>
1

> <PUBCHEM_CACTVS_COMPLEXITY>
0

> <PUBCHEM_CACTVS_HBOND_ACCEPTOR>
2

> <PUBCHEM_CACTVS_HBOND_DONOR>
0

> <PUBCHEM_CACTVS_ROTATABLE_BOND>
0

> <PUBCHEM_CACTVS_SUBSKEYS>
AAADcQAAAAAAAAAAAAABAAAAAAAAAAAAAAAAAAAAAAAAAAAAAAAAAAAAAAAAAAAAAAAAAAAAAAAAAAAAAAAAAAAAAAAAAAAAAAAAAAAAAAAAAAAAAAAAAAAAAAAAAAAAAAAAAAAAAAAAAAAAAAAAAAAAAA==

> <PUBCHEM_IUPAC_OPENEYE_NAME>
hafnium;hydride

> <PUBCHEM_IUPAC_CAS_NAME>
hafnium;hydride

> <PUBCHEM_IUPAC_NAME_MARKUP>
hafnium;hydride

> <PUBCHEM_IUPAC_NAME>
hafnium;hydride

> <PUBCHEM_IUPAC_SYSTEMATIC_NAME>
hafnium;hydride

> <PUBCHEM_IUPAC_TRADITIONAL_NAME>
hafnium;hydride

> <PUBCHEM_IUPAC_INCHI>
InChI=1S/Hf.2H/q;2*-1

> <PUBCHEM_IUPAC_INCHIKEY>
AYGFBBAXRCHZSC-UHFFFAOYSA-N

> <PUBCHEM_EXACT_MASS>
181.96221

> <PUBCHEM_MOLECULAR_FORMULA>
H2Hf-2

> <PUBCHEM_MOLECULAR_WEIGHT>
180.50

> <PUBCHEM_SMILES>
[H-].[H-].[Hf]

> <PUBCHEM_CONNECTIVITY_SMILES>
[H-].[H-].[Hf]

> <PUBCHEM_CACTVS_TPSA>
0

> <PUBCHEM_MONOISOTOPIC_WEIGHT>
181.96221

> <PUBCHEM_TOTAL_CHARGE>
-2

> <PUBCHEM_HEAVY_ATOM_COUNT>
1

> <PUBCHEM_ATOM_DEF_STEREO_COUNT>
0

> <PUBCHEM_ATOM_UDEF_STEREO_COUNT>
0

> <PUBCHEM_BOND_DEF_STEREO_COUNT>
0

> <PUBCHEM_BOND_UDEF_STEREO_COUNT>
0

> <PUBCHEM_ISOTOPIC_ATOM_COUNT>
0

> <PUBCHEM_COMPONENT_COUNT>
3

> <PUBCHEM_CACTVS_TAUTO_COUNT>
-1

> <PUBCHEM_COORDINATE_TYPE>
1
5
255

$$$$
