159731
  -OEChem-08152607082D

 28 18  0     0  0  0  0  0  0999 V2000
    3.9399    1.0000    0.0000 Ru  0  1  0  0  0  0  0  0  0  0  0  0
    4.8059    1.5000    0.0000 Cl  0  5  0  0  0  0  0  0  0  0  0  0
    3.0739    1.5000    0.0000 Cl  0  5  0  0  0  0  0  0  0  0  0  0
    3.9399    0.0000    0.0000 Cl  0  5  0  0  0  0  0  0  0  0  0  0
    0.5369    5.3000    0.0000 N   0  0  0  0  0  0  0  0  0  0  0  0
    3.9399    4.1200    0.0000 N   0  0  0  0  0  0  0  0  0  0  0  0
    3.9399    7.0500    0.0000 N   0  0  0  0  0  0  0  0  0  0  0  0
    7.3429    5.3000    0.0000 N   0  0  0  0  0  0  0  0  0  0  0  0
    3.9399    9.9800    0.0000 N   0  0  0  0  0  0  0  0  0  0  0  0
   10.4167    5.3000    0.0000 N   0  0  0  0  0  0  0  0  0  0  0  0
    1.0739    5.6100    0.0000 H   0  0  0  0  0  0  0  0  0  0  0  0
    0.0000    5.6100    0.0000 H   0  0  0  0  0  0  0  0  0  0  0  0
    0.5369    4.6800    0.0000 H   0  0  0  0  0  0  0  0  0  0  0  0
    4.4768    4.4300    0.0000 H   0  0  0  0  0  0  0  0  0  0  0  0
    3.4030    4.4300    0.0000 H   0  0  0  0  0  0  0  0  0  0  0  0
    3.9399    3.5000    0.0000 H   0  0  0  0  0  0  0  0  0  0  0  0
    4.4768    7.3600    0.0000 H   0  0  0  0  0  0  0  0  0  0  0  0
    3.4030    7.3600    0.0000 H   0  0  0  0  0  0  0  0  0  0  0  0
    3.9399    6.4300    0.0000 H   0  0  0  0  0  0  0  0  0  0  0  0
    7.8798    5.6100    0.0000 H   0  0  0  0  0  0  0  0  0  0  0  0
    6.8059    5.6100    0.0000 H   0  0  0  0  0  0  0  0  0  0  0  0
    7.3429    4.6800    0.0000 H   0  0  0  0  0  0  0  0  0  0  0  0
    4.4768   10.2900    0.0000 H   0  0  0  0  0  0  0  0  0  0  0  0
    3.4030   10.2900    0.0000 H   0  0  0  0  0  0  0  0  0  0  0  0
    3.9399    9.3600    0.0000 H   0  0  0  0  0  0  0  0  0  0  0  0
   10.9537    5.6100    0.0000 H   0  0  0  0  0  0  0  0  0  0  0  0
    9.8798    5.6100    0.0000 H   0  0  0  0  0  0  0  0  0  0  0  0
   10.4167    4.6800    0.0000 H   0  0  0  0  0  0  0  0  0  0  0  0
  5 11  1  0  0  0  0
  5 12  1  0  0  0  0
  5 13  1  0  0  0  0
  6 14  1  0  0  0  0
  6 15  1  0  0  0  0
  6 16  1  0  0  0  0
  7 17  1  0  0  0  0
  7 18  1  0  0  0  0
  7 19  1  0  0  0  0
  8 20  1  0  0  0  0
  8 21  1  0  0  0  0
  8 22  1  0  0  0  0
  9 23  1  0  0  0  0
  9 24  1  0  0  0  0
  9 25  1  0  0  0  0
 10 26  1  0  0  0  0
 10 27  1  0  0  0  0
 10 28  1  0  0  0  0
M  CHG  4   1   3   2  -1   3  -1   4  -1
M  END
> <PUBCHEM_COMPOUND_CID>
159731

> <PUBCHEM_COMPOUND_CANONICALIZED>
1

> <PUBCHEM_CACTVS_COMPLEXITY>
0

> <PUBCHEM_CACTVS_HBOND_ACCEPTOR>
9

> <PUBCHEM_CACTVS_HBOND_DONOR>
6

> <PUBCHEM_CACTVS_ROTATABLE_BOND>
0

> <PUBCHEM_CACTVS_SUBSKEYS>
AAADceADgAAGAAAAACAAAAAAAAAAAAAAAAAAAAAAAAAAAAAAAAAAAAAQAAAAAAAAAAAAAAAAAAAAAAAAAAAAAAAAAAAAAAAAAAAAAAAAAAAAAAAAAAAAAAAAAAAAAAAAAAAAAAAAAAAAAAAAAAAAAAAAAA==

> <PUBCHEM_IUPAC_OPENEYE_NAME>
ammonia;ruthenium(3+);trichloride

> <PUBCHEM_IUPAC_CAS_NAME>
ammonia;ruthenium(3+);trichloride

> <PUBCHEM_IUPAC_NAME_MARKUP>
azane;ruthenium(3+);trichloride

> <PUBCHEM_IUPAC_NAME>
azane;ruthenium(3+);trichloride

> <PUBCHEM_IUPAC_SYSTEMATIC_NAME>
azane;ruthenium(3+);trichloride

> <PUBCHEM_IUPAC_TRADITIONAL_NAME>
ammonia;ruthenium(3+);trichloride

> <PUBCHEM_IUPAC_INCHI>
InChI=1S/3ClH.6H3N.Ru/h3*1H;6*1H3;/q;;;;;;;;;+3/p-3

> <PUBCHEM_IUPAC_INCHIKEY>
GBDZMMXUOBAJMN-UHFFFAOYSA-K

> <PUBCHEM_EXACT_MASS>
308.970193

> <PUBCHEM_MOLECULAR_FORMULA>
Cl3H18N6Ru

> <PUBCHEM_MOLECULAR_WEIGHT>
309.6

> <PUBCHEM_SMILES>
N.N.N.N.N.N.[Cl-].[Cl-].[Cl-].[Ru+3]

> <PUBCHEM_CONNECTIVITY_SMILES>
N.N.N.N.N.N.[Cl-].[Cl-].[Cl-].[Ru+3]

> <PUBCHEM_CACTVS_TPSA>
6

> <PUBCHEM_MONOISOTOPIC_WEIGHT>
308.970193

> <PUBCHEM_TOTAL_CHARGE>
0

> <PUBCHEM_HEAVY_ATOM_COUNT>
10

> <PUBCHEM_ATOM_DEF_STEREO_COUNT>
0

> <PUBCHEM_ATOM_UDEF_STEREO_COUNT>
0

> <PUBCHEM_BOND_DEF_STEREO_COUNT>
0

> <PUBCHEM_BOND_UDEF_STEREO_COUNT>
0

> <PUBCHEM_ISOTOPIC_ATOM_COUNT>
0

> <PUBCHEM_COMPONENT_COUNT>
10

> <PUBCHEM_CACTVS_TAUTO_COUNT>
-1

> <PUBCHEM_COORDINATE_TYPE>
1
5
255

$$$$
