776
  -OEChem-08152603123D

 21 21  0     1  0  0  0  0  0999 V2000
   -2.2126   -1.7280   -0.0183 O   0  0  0  0  0  0  0  0  0  0  0  0
   -2.9502    1.0498   -0.2856 N   0  0  0  0  0  0  0  0  0  0  0  0
    1.4998   -0.6531   -0.8954 N   0  0  0  0  0  0  0  0  0  0  0  0
    2.7400    0.2237    0.7248 N   0  0  0  0  0  0  0  0  0  0  0  0
   -1.6614    0.6388    0.2834 C   0  0  2  0  0  0  0  0  0  0  0  0
   -0.5992    0.6858   -0.8319 C   0  0  0  0  0  0  0  0  0  0  0  0
    0.7867    0.3412   -0.3375 C   0  0  0  0  0  0  0  0  0  0  0  0
   -1.8248   -0.7430    0.9306 C   0  0  0  0  0  0  0  0  0  0  0  0
    1.5353    0.8764    0.6471 C   0  0  0  0  0  0  0  0  0  0  0  0
    2.6863   -0.6915   -0.2172 C   0  0  0  0  0  0  0  0  0  0  0  0
   -1.3932    1.3548    1.0701 H   0  0  0  0  0  0  0  0  0  0  0  0
   -0.8793    0.0114   -1.6521 H   0  0  0  0  0  0  0  0  0  0  0  0
   -0.5569    1.6961   -1.2609 H   0  0  0  0  0  0  0  0  0  0  0  0
   -0.8910   -1.0684    1.4003 H   0  0  0  0  0  0  0  0  0  0  0  0
   -2.5912   -0.7076    1.7137 H   0  0  0  0  0  0  0  0  0  0  0  0
   -2.8751    1.9970   -0.6545 H   0  0  0  0  0  0  0  0  0  0  0  0
   -3.6543    1.0839    0.4505 H   0  0  0  0  0  0  0  0  0  0  0  0
    1.2267   -1.2570   -1.6600 H   0  0  0  0  0  0  0  0  0  0  0  0
    1.2973    1.6925    1.3137 H   0  0  0  0  0  0  0  0  0  0  0  0
    3.4622   -1.4045   -0.4573 H   0  0  0  0  0  0  0  0  0  0  0  0
   -2.2956   -2.5697    0.4614 H   0  0  0  0  0  0  0  0  0  0  0  0
  1  8  1  0  0  0  0
  1 21  1  0  0  0  0
  2  5  1  0  0  0  0
  2 16  1  0  0  0  0
  2 17  1  0  0  0  0
  3  7  1  0  0  0  0
  3 10  1  0  0  0  0
  3 18  1  0  0  0  0
  4  9  1  0  0  0  0
  4 10  2  0  0  0  0
  5  6  1  0  0  0  0
  5  8  1  0  0  0  0
  5 11  1  0  0  0  0
  6  7  1  0  0  0  0
  6 12  1  0  0  0  0
  6 13  1  0  0  0  0
  7  9  2  0  0  0  0
  8 14  1  0  0  0  0
  8 15  1  0  0  0  0
  9 19  1  0  0  0  0
 10 20  1  0  0  0  0
M  END
> <PUBCHEM_COMPOUND_CID>
776

> <PUBCHEM_CONFORMER_RMSD>
0.6

> <PUBCHEM_CONFORMER_DIVERSEORDER>
2
19
5
14
21
12
15
26
22
25
24
16
23
17
20
6
3
4
27
10
8
7
11
9
1
13
18

> <PUBCHEM_MMFF94_PARTIAL_CHARGES>
16
1 -0.68
10 0.04
16 0.36
17 0.36
18 0.27
19 0.15
2 -0.99
20 0.15
21 0.4
3 0.03
4 -0.57
5 0.27
6 0.18
7 -0.33
8 0.28
9 0.08

> <PUBCHEM_EFFECTIVE_ROTOR_COUNT>
3

> <PUBCHEM_PHARMACOPHORE_FEATURES>
7
1 1 acceptor
1 1 donor
1 2 cation
1 2 donor
1 3 donor
3 3 4 10 cation
5 3 4 7 9 10 rings

> <PUBCHEM_HEAVY_ATOM_COUNT>
10

> <PUBCHEM_ATOM_DEF_STEREO_COUNT>
0

> <PUBCHEM_ATOM_UDEF_STEREO_COUNT>
1

> <PUBCHEM_BOND_DEF_STEREO_COUNT>
0

> <PUBCHEM_BOND_UDEF_STEREO_COUNT>
0

> <PUBCHEM_ISOTOPIC_ATOM_COUNT>
0

> <PUBCHEM_COMPONENT_COUNT>
1

> <PUBCHEM_CACTVS_TAUTO_COUNT>
2

> <PUBCHEM_CONFORMER_ID>
0000030800000002

> <PUBCHEM_MMFF94_ENERGY>
4.0194

> <PUBCHEM_FEATURE_SELFOVERLAP>
35.524

> <PUBCHEM_SHAPE_FINGERPRINT>
10857977 72 18340199790797536152
12932741 1 18202007615952088276
12932764 1 17095239207312009132
14390081 3 9799693675204522083
15310529 11 11025796504787190273
20201158 50 18272088253660278366
29004967 10 18130791131467123824
3248919 1 18343301452954307588
369184 2 17846779602832113561

> <PUBCHEM_SHAPE_MULTIPOLES>
184.98
4.38
1.26
0.94
0.02
0.33
-0.03
0.38
-0.38
-0.72
0.01
0.11
-0.01
0.42

> <PUBCHEM_SHAPE_SELFOVERLAP>
371.187

> <PUBCHEM_SHAPE_VOLUME>
111.4

> <PUBCHEM_COORDINATE_TYPE>
2
5
10

$$$$
