21765
  -OEChem-08152606022D

  3  2  0     0  0  0  0  0  0999 V2000
    2.5369   -0.1550    0.0000 Te  0  0  0  0  0  0  0  0  0  0  0  0
    3.0739    0.1550    0.0000 H   0  0  0  0  0  0  0  0  0  0  0  0
    2.0000    0.1550    0.0000 H   0  0  0  0  0  0  0  0  0  0  0  0
  1  2  1  0  0  0  0
  1  3  1  0  0  0  0
M  END
> <PUBCHEM_COMPOUND_CID>
21765

> <PUBCHEM_COMPOUND_CANONICALIZED>
1

> <PUBCHEM_CACTVS_COMPLEXITY>
0

> <PUBCHEM_CACTVS_HBOND_ACCEPTOR>
0

> <PUBCHEM_CACTVS_HBOND_DONOR>
0

> <PUBCHEM_CACTVS_ROTATABLE_BOND>
0

> <PUBCHEM_CACTVS_SUBSKEYS>
AAADcQAAAAAAAAAAAAAgAAAAAAAAAAAAAAAAAAAAAAAAAAAAAAAAAAAAAAAAAAAAAAAAAAAAAAAAAAAAAAAAAAAAAAAAAAAAAAAAAAAAAAAAAAAAAAAAAAAAAAAAAAAAAAAAAAAAAAAAAAAAAAAAAAAAAA==

> <PUBCHEM_IUPAC_OPENEYE_NAME>
hydrogen telluride

> <PUBCHEM_IUPAC_CAS_NAME>
tellane

> <PUBCHEM_IUPAC_NAME_MARKUP>
tellane

> <PUBCHEM_IUPAC_NAME>
tellane

> <PUBCHEM_IUPAC_SYSTEMATIC_NAME>
tellane

> <PUBCHEM_IUPAC_TRADITIONAL_NAME>
hydrogen telluride

> <PUBCHEM_IUPAC_INCHI>
InChI=1S/H2Te/h1H2

> <PUBCHEM_IUPAC_INCHIKEY>
VTLHPSMQDDEFRU-UHFFFAOYSA-N

> <PUBCHEM_EXACT_MASS>
131.9218728

> <PUBCHEM_MOLECULAR_FORMULA>
H2Te

> <PUBCHEM_MOLECULAR_WEIGHT>
129.6

> <PUBCHEM_SMILES>
[TeH2]

> <PUBCHEM_CONNECTIVITY_SMILES>
[TeH2]

> <PUBCHEM_CACTVS_TPSA>
0

> <PUBCHEM_MONOISOTOPIC_WEIGHT>
131.9218728

> <PUBCHEM_TOTAL_CHARGE>
0

> <PUBCHEM_HEAVY_ATOM_COUNT>
1

> <PUBCHEM_ATOM_DEF_STEREO_COUNT>
0

> <PUBCHEM_ATOM_UDEF_STEREO_COUNT>
0

> <PUBCHEM_BOND_DEF_STEREO_COUNT>
0

> <PUBCHEM_BOND_UDEF_STEREO_COUNT>
0

> <PUBCHEM_ISOTOPIC_ATOM_COUNT>
0

> <PUBCHEM_COMPONENT_COUNT>
1

> <PUBCHEM_CACTVS_TAUTO_COUNT>
-1

> <PUBCHEM_COORDINATE_TYPE>
1
5
255

$$$$
