933
  -OEChem-08152603303D

  6  5  0     0  0  0  0  0  0999 V2000
    0.7070    0.0000    0.0000 O   0  0  0  0  0  0  0  0  0  0  0  0
   -0.7070    0.0000    0.0000 N   0  3  0  0  0  0  0  0  0  0  0  0
   -1.0639   -0.8553   -0.4439 H   0  0  0  0  0  0  0  0  0  0  0  0
   -1.0639    0.8149   -0.5143 H   0  0  0  0  0  0  0  0  0  0  0  0
   -1.0585    0.0406    0.9646 H   0  0  0  0  0  0  0  0  0  0  0  0
    0.8753   -0.0403   -0.9568 H   0  0  0  0  0  0  0  0  0  0  0  0
  1  2  1  0  0  0  0
  1  6  1  0  0  0  0
  2  3  1  0  0  0  0
  2  4  1  0  0  0  0
  2  5  1  0  0  0  0
M  CHG  1   2   1
M  END
> <PUBCHEM_COMPOUND_CID>
933

> <PUBCHEM_CONFORMER_RMSD>
0.4

> <PUBCHEM_CONFORMER_DIVERSEORDER>
1

> <PUBCHEM_MMFF94_PARTIAL_CHARGES>
6
1 -0.15
2 -0.6
3 0.45
4 0.45
5 0.45
6 0.4

> <PUBCHEM_EFFECTIVE_ROTOR_COUNT>
0

> <PUBCHEM_PHARMACOPHORE_FEATURES>
1
1 2 donor

> <PUBCHEM_HEAVY_ATOM_COUNT>
2

> <PUBCHEM_ATOM_DEF_STEREO_COUNT>
0

> <PUBCHEM_ATOM_UDEF_STEREO_COUNT>
0

> <PUBCHEM_BOND_DEF_STEREO_COUNT>
0

> <PUBCHEM_BOND_UDEF_STEREO_COUNT>
0

> <PUBCHEM_ISOTOPIC_ATOM_COUNT>
0

> <PUBCHEM_COMPONENT_COUNT>
1

> <PUBCHEM_CACTVS_TAUTO_COUNT>
1

> <PUBCHEM_CONFORMER_ID>
000003A500000001

> <PUBCHEM_MMFF94_ENERGY>
0.1851

> <PUBCHEM_FEATURE_SELFOVERLAP>
5.074

> <PUBCHEM_SHAPE_FINGERPRINT>
260 1 18410856563945306375

> <PUBCHEM_SHAPE_MULTIPOLES>
30.31
1
0.5
0.5
0
0
0
0
0
0.01
0
0.01
0
0

> <PUBCHEM_SHAPE_SELFOVERLAP>
39.633

> <PUBCHEM_SHAPE_VOLUME>
25

> <PUBCHEM_COORDINATE_TYPE>
10
5
2

$$$$
