23996
  -OEChem-08152606152D

  2  1  0     0  0  0  0  0  0999 V2000
    2.0000    0.0000    0.0000 At  0  0  0  0  0  0  0  0  0  0  0  0
    3.0000    0.0000    0.0000 H   0  0  0  0  0  0  0  0  0  0  0  0
  1  2  1  0  0  0  0
M  END
> <PUBCHEM_COMPOUND_CID>
23996

> <PUBCHEM_COMPOUND_CANONICALIZED>
1

> <PUBCHEM_CACTVS_COMPLEXITY>
0

> <PUBCHEM_CACTVS_HBOND_ACCEPTOR>
0

> <PUBCHEM_CACTVS_HBOND_DONOR>
0

> <PUBCHEM_CACTVS_ROTATABLE_BOND>
0

> <PUBCHEM_CACTVS_SUBSKEYS>
AAADcQAAAAAAAAAAAAAAAAAAAAAAAAAAAAAAAAAAAAAAAAAAAAAAAAAAAAAAAAAAAAAAAAAAAAAAAAAAAAAAAAAAAAAAAAAAAAAAAAAAAAAAAAAAAAAAAAAAAAAAAAAAAAAAAAAAAAAAAAAAAAAAAAAAAA==

> <PUBCHEM_IUPAC_OPENEYE_NAME>
astatane

> <PUBCHEM_IUPAC_CAS_NAME>
astatane

> <PUBCHEM_IUPAC_NAME_MARKUP>
astatane

> <PUBCHEM_IUPAC_NAME>
astatane

> <PUBCHEM_IUPAC_SYSTEMATIC_NAME>
astatane

> <PUBCHEM_IUPAC_TRADITIONAL_NAME>
astatane

> <PUBCHEM_IUPAC_INCHI>
InChI=1S/AtH/h1H

> <PUBCHEM_IUPAC_INCHIKEY>
PGLQOBBPBPTBQS-UHFFFAOYSA-N

> <PUBCHEM_EXACT_MASS>
210.99497

> <PUBCHEM_MOLECULAR_FORMULA>
AtH

> <PUBCHEM_MOLECULAR_WEIGHT>
210.9951

> <PUBCHEM_SMILES>
[AtH]

> <PUBCHEM_CONNECTIVITY_SMILES>
[AtH]

> <PUBCHEM_CACTVS_TPSA>
0

> <PUBCHEM_MONOISOTOPIC_WEIGHT>
210.99497

> <PUBCHEM_TOTAL_CHARGE>
0

> <PUBCHEM_HEAVY_ATOM_COUNT>
1

> <PUBCHEM_ATOM_DEF_STEREO_COUNT>
0

> <PUBCHEM_ATOM_UDEF_STEREO_COUNT>
0

> <PUBCHEM_BOND_DEF_STEREO_COUNT>
0

> <PUBCHEM_BOND_UDEF_STEREO_COUNT>
0

> <PUBCHEM_ISOTOPIC_ATOM_COUNT>
0

> <PUBCHEM_COMPONENT_COUNT>
1

> <PUBCHEM_CACTVS_TAUTO_COUNT>
-1

> <PUBCHEM_COORDINATE_TYPE>
1
5
255

$$$$
