11084757
  -OEChem-08152605172D

  2  1  0     0  0  0  0  0  0999 V2000
    3.0000    0.0000    0.0000 In  0  0  0  0  0  1  0  0  0  0  0  0
    2.0000    0.0000    0.0000 Br  0  0  0  0  0  0  0  0  0  0  0  0
  1  2  1  0  0  0  0
M  END
> <PUBCHEM_COMPOUND_CID>
11084757

> <PUBCHEM_COMPOUND_CANONICALIZED>
1

> <PUBCHEM_CACTVS_COMPLEXITY>
2

> <PUBCHEM_CACTVS_HBOND_ACCEPTOR>
0

> <PUBCHEM_CACTVS_HBOND_DONOR>
0

> <PUBCHEM_CACTVS_ROTATABLE_BOND>
0

> <PUBCHEM_CACTVS_SUBSKEYS>
AAADcQAAAAAAEAAAAAEAAAAAAAAAAAAAAAAAAAAAAAAAAAAAAAAAAAAAAAAAAAAAAAAAAAAAAAAAAAAAAAAAAAAAAAAAAAAAAAAAAAAAAAAAAAAAAAAAAAAAAAAAAAAAAAAAAAAAAAAAAAAAAAAAAAAAAA==

> <PUBCHEM_IUPAC_OPENEYE_NAME>
bromoindium

> <PUBCHEM_IUPAC_CAS_NAME>
bromoindium

> <PUBCHEM_IUPAC_NAME_MARKUP>
bromoindium

> <PUBCHEM_IUPAC_NAME>
bromoindium

> <PUBCHEM_IUPAC_SYSTEMATIC_NAME>
bromanylindium

> <PUBCHEM_IUPAC_TRADITIONAL_NAME>
bromoindium

> <PUBCHEM_IUPAC_INCHI>
InChI=1S/BrH.In/h1H;/q;+1/p-1

> <PUBCHEM_IUPAC_INCHIKEY>
KLRHPHDUDFIRKB-UHFFFAOYSA-M

> <PUBCHEM_EXACT_MASS>
193.82222

> <PUBCHEM_MOLECULAR_FORMULA>
BrIn

> <PUBCHEM_MOLECULAR_WEIGHT>
194.72

> <PUBCHEM_SMILES>
Br[In]

> <PUBCHEM_CONNECTIVITY_SMILES>
Br[In]

> <PUBCHEM_CACTVS_TPSA>
0

> <PUBCHEM_MONOISOTOPIC_WEIGHT>
193.82222

> <PUBCHEM_TOTAL_CHARGE>
0

> <PUBCHEM_HEAVY_ATOM_COUNT>
2

> <PUBCHEM_ATOM_DEF_STEREO_COUNT>
0

> <PUBCHEM_ATOM_UDEF_STEREO_COUNT>
0

> <PUBCHEM_BOND_DEF_STEREO_COUNT>
0

> <PUBCHEM_BOND_UDEF_STEREO_COUNT>
0

> <PUBCHEM_ISOTOPIC_ATOM_COUNT>
0

> <PUBCHEM_COMPONENT_COUNT>
1

> <PUBCHEM_CACTVS_TAUTO_COUNT>
-1

> <PUBCHEM_COORDINATE_TYPE>
1
5
255

$$$$
