3468413
  -OEChem-08152606512D

  2  1  0     0  0  0  0  0  0999 V2000
    3.0000    0.0000    0.0000 Sb  0  0  0  0  0  0  0  0  0  0  0  0
    2.0000    0.0000    0.0000 In  0  0  0  0  0  0  0  0  0  0  0  0
  1  2  3  0  0  0  0
M  END
> <PUBCHEM_COMPOUND_CID>
3468413

> <PUBCHEM_COMPOUND_CANONICALIZED>
1

> <PUBCHEM_CACTVS_COMPLEXITY>
10

> <PUBCHEM_CACTVS_HBOND_ACCEPTOR>
0

> <PUBCHEM_CACTVS_HBOND_DONOR>
0

> <PUBCHEM_CACTVS_ROTATABLE_BOND>
0

> <PUBCHEM_CACTVS_SUBSKEYS>
AAADcQAAAAAAAAAAAAFAAAAAAAAAAAAAAAAAAAAAAAAAAAAAAAAAAAAAAAAAAAAAAAAAAAAAAAAAAAAAAAAAAAAAAAAAAAAAAAAAAAAAAAAAAAAAAAAAAAAAAAAAAAAAAAAAAAAAAAAAAAAAAAAAAAAAAA==

> <PUBCHEM_IUPAC_OPENEYE_NAME>
indiganylidynestibane

> <PUBCHEM_IUPAC_CAS_NAME>
indiganylidynestibine

> <PUBCHEM_IUPAC_NAME_MARKUP>
indiganylidynestibane

> <PUBCHEM_IUPAC_NAME>
indiganylidynestibane

> <PUBCHEM_IUPAC_SYSTEMATIC_NAME>
indiganylidynestibane

> <PUBCHEM_IUPAC_TRADITIONAL_NAME>
indiganylidynestibine

> <PUBCHEM_IUPAC_INCHI>
InChI=1S/In.Sb

> <PUBCHEM_IUPAC_INCHIKEY>
WPYVAWXEWQSOGY-UHFFFAOYSA-N

> <PUBCHEM_EXACT_MASS>
235.80769

> <PUBCHEM_MOLECULAR_FORMULA>
InSb

> <PUBCHEM_MOLECULAR_WEIGHT>
236.578

> <PUBCHEM_SMILES>
[In]#[Sb]

> <PUBCHEM_CONNECTIVITY_SMILES>
[In]#[Sb]

> <PUBCHEM_CACTVS_TPSA>
0

> <PUBCHEM_MONOISOTOPIC_WEIGHT>
235.80769

> <PUBCHEM_TOTAL_CHARGE>
0

> <PUBCHEM_HEAVY_ATOM_COUNT>
2

> <PUBCHEM_ATOM_DEF_STEREO_COUNT>
0

> <PUBCHEM_ATOM_UDEF_STEREO_COUNT>
0

> <PUBCHEM_BOND_DEF_STEREO_COUNT>
0

> <PUBCHEM_BOND_UDEF_STEREO_COUNT>
0

> <PUBCHEM_ISOTOPIC_ATOM_COUNT>
0

> <PUBCHEM_COMPONENT_COUNT>
1

> <PUBCHEM_CACTVS_TAUTO_COUNT>
-1

> <PUBCHEM_COORDINATE_TYPE>
1
5
255

$$$$
