522683
  -OEChem-08152606492D

  6  5  0     0  0  0  0  0  0999 V2000
    2.9945   -0.0323    0.0000 I   0  0  0  0  0  0  0  0  0  0  0  0
    3.8606    0.4677    0.0000 F   0  0  0  0  0  0  0  0  0  0  0  0
    2.0000    0.0722    0.0000 F   0  0  0  0  0  0  0  0  0  0  0  0
    2.5878   -0.9458    0.0000 F   0  0  0  0  0  0  0  0  0  0  0  0
    2.7866    0.9458    0.0000 F   0  0  0  0  0  0  0  0  0  0  0  0
    3.7377   -0.7014    0.0000 F   0  0  0  0  0  0  0  0  0  0  0  0
  1  2  1  0  0  0  0
  1  3  1  0  0  0  0
  1  4  1  0  0  0  0
  1  5  1  0  0  0  0
  1  6  1  0  0  0  0
M  END
> <PUBCHEM_COMPOUND_CID>
522683

> <PUBCHEM_COMPOUND_CANONICALIZED>
1

> <PUBCHEM_CACTVS_COMPLEXITY>
37.1

> <PUBCHEM_CACTVS_HBOND_ACCEPTOR>
5

> <PUBCHEM_CACTVS_HBOND_DONOR>
0

> <PUBCHEM_CACTVS_ROTATABLE_BOND>
0

> <PUBCHEM_CACTVS_SUBSKEYS>
AAADcQAAAcAAAgAAAAAAAAAAAAAAAAAAAAAAAAAAAAAAAAAAAAAAAAAAAAAAAAAAAAAAAAAAAAAAAAAAAAAAAAAAAAAAAAAAAAAAAAAAAAAAAAAAAAAAAAAAAAAAAAAAAAAAAAAAAAAAAAAAAAAAAAAAAA==

> <PUBCHEM_IUPAC_OPENEYE_NAME>
pentafluoro-lambda5-iodane

> <PUBCHEM_IUPAC_CAS_NAME>
pentafluoro-lambda5-iodane

> <PUBCHEM_IUPAC_NAME_MARKUP>
pentafluoro-&lambda;<SUP>5</SUP>-iodane

> <PUBCHEM_IUPAC_NAME>
pentafluoro-lambda5-iodane

> <PUBCHEM_IUPAC_SYSTEMATIC_NAME>
pentakis(fluoranyl)-lambda5-iodane

> <PUBCHEM_IUPAC_TRADITIONAL_NAME>
pentafluoro-lambda5-iodane

> <PUBCHEM_IUPAC_INCHI>
InChI=1S/F5I/c1-6(2,3,4)5

> <PUBCHEM_IUPAC_INCHIKEY>
PJIYEPACCBMRLZ-UHFFFAOYSA-N

> <PUBCHEM_XLOGP3_AA>
3.6

> <PUBCHEM_EXACT_MASS>
221.89649

> <PUBCHEM_MOLECULAR_FORMULA>
F5I

> <PUBCHEM_MOLECULAR_WEIGHT>
221.8965

> <PUBCHEM_SMILES>
FI(F)(F)(F)F

> <PUBCHEM_CONNECTIVITY_SMILES>
FI(F)(F)(F)F

> <PUBCHEM_CACTVS_TPSA>
0

> <PUBCHEM_MONOISOTOPIC_WEIGHT>
221.89649

> <PUBCHEM_TOTAL_CHARGE>
0

> <PUBCHEM_HEAVY_ATOM_COUNT>
6

> <PUBCHEM_ATOM_DEF_STEREO_COUNT>
0

> <PUBCHEM_ATOM_UDEF_STEREO_COUNT>
0

> <PUBCHEM_BOND_DEF_STEREO_COUNT>
0

> <PUBCHEM_BOND_UDEF_STEREO_COUNT>
0

> <PUBCHEM_ISOTOPIC_ATOM_COUNT>
0

> <PUBCHEM_COMPONENT_COUNT>
1

> <PUBCHEM_CACTVS_TAUTO_COUNT>
-1

> <PUBCHEM_COORDINATE_TYPE>
1
5
255

$$$$
