11027360
  -OEChem-08152607422D

 46 42  0     0  0  0  0  0  0999 V2000
    5.4641    0.6900    0.0000 Ir  0  0  0  0  0  0  0  0  0  0  0  0
    6.3301    1.1900    0.0000 O   0  0  0  0  0  0  0  0  0  0  0  0
    4.5981    1.1900    0.0000 O   0  0  0  0  0  0  0  0  0  0  0  0
    5.4641   -0.3100    0.0000 O   0  0  0  0  0  0  0  0  0  0  0  0
    7.1962    2.6900    0.0000 O   0  0  0  0  0  0  0  0  0  0  0  0
    2.8660    1.1900    0.0000 O   0  0  0  0  0  0  0  0  0  0  0  0
    6.3301   -1.8100    0.0000 O   0  0  0  0  0  0  0  0  0  0  0  0
    7.1962    0.6900    0.0000 C   0  0  0  0  0  0  0  0  0  0  0  0
    4.5981    2.1900    0.0000 C   0  0  0  0  0  0  0  0  0  0  0  0
    4.5981   -0.8100    0.0000 C   0  0  0  0  0  0  0  0  0  0  0  0
    7.1962   -0.3100    0.0000 C   0  0  0  0  0  0  0  0  0  0  0  0
    5.4641    2.6900    0.0000 C   0  0  0  0  0  0  0  0  0  0  0  0
    3.7320   -0.3100    0.0000 C   0  0  0  0  0  0  0  0  0  0  0  0
    8.0622    1.1900    0.0000 C   0  0  0  0  0  0  0  0  0  0  0  0
    3.7320    2.6900    0.0000 C   0  0  0  0  0  0  0  0  0  0  0  0
    4.5981   -1.8100    0.0000 C   0  0  0  0  0  0  0  0  0  0  0  0
    8.0622    2.1900    0.0000 C   0  0  0  0  0  0  0  0  0  0  0  0
    2.8660    2.1900    0.0000 C   0  0  0  0  0  0  0  0  0  0  0  0
    5.4641   -2.3100    0.0000 C   0  0  0  0  0  0  0  0  0  0  0  0
    8.9282    2.6900    0.0000 C   0  0  0  0  0  0  0  0  0  0  0  0
    2.0000    2.6900    0.0000 C   0  0  0  0  0  0  0  0  0  0  0  0
    5.4641   -3.3100    0.0000 C   0  0  0  0  0  0  0  0  0  0  0  0
    6.3301    1.8100    0.0000 H   0  0  0  0  0  0  0  0  0  0  0  0
    4.0611    0.8800    0.0000 H   0  0  0  0  0  0  0  0  0  0  0  0
    6.0010   -0.6200    0.0000 H   0  0  0  0  0  0  0  0  0  0  0  0
    6.5762   -0.3100    0.0000 H   0  0  0  0  0  0  0  0  0  0  0  0
    7.1962   -0.9300    0.0000 H   0  0  0  0  0  0  0  0  0  0  0  0
    7.8162   -0.3100    0.0000 H   0  0  0  0  0  0  0  0  0  0  0  0
    5.7741    2.1531    0.0000 H   0  0  0  0  0  0  0  0  0  0  0  0
    6.0010    3.0000    0.0000 H   0  0  0  0  0  0  0  0  0  0  0  0
    5.1541    3.2269    0.0000 H   0  0  0  0  0  0  0  0  0  0  0  0
    4.0420    0.2269    0.0000 H   0  0  0  0  0  0  0  0  0  0  0  0
    3.1951   -0.0000    0.0000 H   0  0  0  0  0  0  0  0  0  0  0  0
    3.4220   -0.8469    0.0000 H   0  0  0  0  0  0  0  0  0  0  0  0
    8.5991    0.8800    0.0000 H   0  0  0  0  0  0  0  0  0  0  0  0
    3.7320    3.3100    0.0000 H   0  0  0  0  0  0  0  0  0  0  0  0
    4.0611   -2.1200    0.0000 H   0  0  0  0  0  0  0  0  0  0  0  0
    9.2382    2.1531    0.0000 H   0  0  0  0  0  0  0  0  0  0  0  0
    9.4651    3.0000    0.0000 H   0  0  0  0  0  0  0  0  0  0  0  0
    8.6182    3.2269    0.0000 H   0  0  0  0  0  0  0  0  0  0  0  0
    2.3100    3.2269    0.0000 H   0  0  0  0  0  0  0  0  0  0  0  0
    1.4631    3.0000    0.0000 H   0  0  0  0  0  0  0  0  0  0  0  0
    1.6900    2.1531    0.0000 H   0  0  0  0  0  0  0  0  0  0  0  0
    4.8441   -3.3100    0.0000 H   0  0  0  0  0  0  0  0  0  0  0  0
    5.4641   -3.9300    0.0000 H   0  0  0  0  0  0  0  0  0  0  0  0
    6.0841   -3.3100    0.0000 H   0  0  0  0  0  0  0  0  0  0  0  0
  2  8  1  0  0  0  0
  2 23  1  0  0  0  0
  3  9  1  0  0  0  0
  3 24  1  0  0  0  0
  4 10  1  0  0  0  0
  4 25  1  0  0  0  0
  5 17  2  0  0  0  0
  6 18  2  0  0  0  0
  7 19  2  0  0  0  0
  8 11  1  0  0  0  0
  8 14  2  0  0  0  0
  9 12  1  0  0  0  0
  9 15  2  0  0  0  0
 10 13  1  0  0  0  0
 10 16  2  0  0  0  0
 11 26  1  0  0  0  0
 11 27  1  0  0  0  0
 11 28  1  0  0  0  0
 12 29  1  0  0  0  0
 12 30  1  0  0  0  0
 12 31  1  0  0  0  0
 13 32  1  0  0  0  0
 13 33  1  0  0  0  0
 13 34  1  0  0  0  0
 14 17  1  0  0  0  0
 14 35  1  0  0  0  0
 15 18  1  0  0  0  0
 15 36  1  0  0  0  0
 16 19  1  0  0  0  0
 16 37  1  0  0  0  0
 17 20  1  0  0  0  0
 18 21  1  0  0  0  0
 19 22  1  0  0  0  0
 20 38  1  0  0  0  0
 20 39  1  0  0  0  0
 20 40  1  0  0  0  0
 21 41  1  0  0  0  0
 21 42  1  0  0  0  0
 21 43  1  0  0  0  0
 22 44  1  0  0  0  0
 22 45  1  0  0  0  0
 22 46  1  0  0  0  0
M  END
> <PUBCHEM_COMPOUND_CID>
11027360

> <PUBCHEM_COMPOUND_CANONICALIZED>
1

> <PUBCHEM_CACTVS_COMPLEXITY>
380

> <PUBCHEM_CACTVS_HBOND_ACCEPTOR>
6

> <PUBCHEM_CACTVS_HBOND_DONOR>
3

> <PUBCHEM_CACTVS_ROTATABLE_BOND>
3

> <PUBCHEM_CACTVS_SUBSKEYS>
AAADceBwOAAAAAAAAAAACAAAAAAAAAAAAAAAAAAAAAAAAAAAAAAAGgAACAAACASAgAACAAAAAgCIAKBSAAAAAAAgIAAACAAAAEgAAAAAAQAAAAAAAAAIAQIAAAAAAAAAAAAAAAAAAAAAAAAAAAAAAAAAAA==

> <PUBCHEM_IUPAC_OPENEYE_NAME>
tris((Z)-4-hydroxypent-3-en-2-one);iridium

> <PUBCHEM_IUPAC_CAS_NAME>
tris((Z)-4-hydroxy-3-penten-2-one);iridium

> <PUBCHEM_IUPAC_NAME_MARKUP>
tris((<I>Z</I>)-4-hydroxypent-3-en-2-one);iridium

> <PUBCHEM_IUPAC_NAME>
tris((Z)-4-hydroxypent-3-en-2-one);iridium

> <PUBCHEM_IUPAC_SYSTEMATIC_NAME>
iridium;tris((Z)-4-oxidanylpent-3-en-2-one)

> <PUBCHEM_IUPAC_TRADITIONAL_NAME>
tris((Z)-4-hydroxypent-3-en-2-one);iridium

> <PUBCHEM_IUPAC_INCHI>
InChI=1S/3C5H8O2.Ir/c3*1-4(6)3-5(2)7;/h3*3,6H,1-2H3;/b3*4-3-;

> <PUBCHEM_IUPAC_INCHIKEY>
AZFHXIBNMPIGOD-LNTINUHCSA-N

> <PUBCHEM_EXACT_MASS>
493.12021

> <PUBCHEM_MOLECULAR_FORMULA>
C15H24IrO6

> <PUBCHEM_MOLECULAR_WEIGHT>
492.56

> <PUBCHEM_SMILES>
C/C(=C/C(=O)C)/O.C/C(=C/C(=O)C)/O.C/C(=C/C(=O)C)/O.[Ir]

> <PUBCHEM_CONNECTIVITY_SMILES>
CC(=CC(=O)C)O.CC(=CC(=O)C)O.CC(=CC(=O)C)O.[Ir]

> <PUBCHEM_CACTVS_TPSA>
112

> <PUBCHEM_MONOISOTOPIC_WEIGHT>
493.12021

> <PUBCHEM_TOTAL_CHARGE>
0

> <PUBCHEM_HEAVY_ATOM_COUNT>
22

> <PUBCHEM_ATOM_DEF_STEREO_COUNT>
0

> <PUBCHEM_ATOM_UDEF_STEREO_COUNT>
0

> <PUBCHEM_BOND_DEF_STEREO_COUNT>
3

> <PUBCHEM_BOND_UDEF_STEREO_COUNT>
0

> <PUBCHEM_ISOTOPIC_ATOM_COUNT>
0

> <PUBCHEM_COMPONENT_COUNT>
4

> <PUBCHEM_CACTVS_TAUTO_COUNT>
-1

> <PUBCHEM_NONSTANDARDBOND>
1  2  6
1  3  6
1  4  6

> <PUBCHEM_COORDINATE_TYPE>
1
5
255

$$$$
