16211477
  -OEChem-08152604512D

  7  5  0     0  0  0  0  0  0999 V2000
    0.8660    1.0000    0.0000 Ir  0  0  0  0  0  0  0  0  0  0  0  0
    1.7321    1.5000    0.0000 Cl  0  0  0  0  0  0  0  0  0  0  0  0
    0.0000    1.5000    0.0000 Cl  0  0  0  0  0  0  0  0  0  0  0  0
    0.8660    0.0000    0.0000 Cl  0  0  0  0  0  0  0  0  0  0  0  0
    0.8660    3.5000    0.0000 O   0  0  0  0  0  0  0  0  0  0  0  0
    1.4030    3.8100    0.0000 H   0  0  0  0  0  0  0  0  0  0  0  0
    0.3291    3.8100    0.0000 H   0  0  0  0  0  0  0  0  0  0  0  0
  1  2  1  0  0  0  0
  1  3  1  0  0  0  0
  1  4  1  0  0  0  0
  5  6  1  0  0  0  0
  5  7  1  0  0  0  0
M  END
> <PUBCHEM_COMPOUND_CID>
16211477

> <PUBCHEM_COMPOUND_CANONICALIZED>
1

> <PUBCHEM_CACTVS_COMPLEXITY>
8

> <PUBCHEM_CACTVS_HBOND_ACCEPTOR>
1

> <PUBCHEM_CACTVS_HBOND_DONOR>
1

> <PUBCHEM_CACTVS_ROTATABLE_BOND>
0

> <PUBCHEM_CACTVS_SUBSKEYS>
AAADcQAAIAAGAAAAAAAACAAAAAAAAAAAAAAAAAAAAAAAAAAAAAAAAAAACAAAAAAAAAAAAAAAAAAAAAAAAAAAAAAAAAAAAAAAAAAAAAAAAAAAAAAAAAAAAAAAAAAAAAAAAAAAAAAAAAAAAAAAAAAAAAAAAA==

> <PUBCHEM_IUPAC_OPENEYE_NAME>
trichloroiridium;hydrate

> <PUBCHEM_IUPAC_CAS_NAME>
trichloroiridium;hydrate

> <PUBCHEM_IUPAC_NAME_MARKUP>
trichloroiridium;hydrate

> <PUBCHEM_IUPAC_NAME>
trichloroiridium;hydrate

> <PUBCHEM_IUPAC_SYSTEMATIC_NAME>
tris(chloranyl)iridium;hydrate

> <PUBCHEM_IUPAC_TRADITIONAL_NAME>
trichloroiridium;hydrate

> <PUBCHEM_IUPAC_INCHI>
InChI=1S/3ClH.Ir.H2O/h3*1H;;1H2/q;;;+3;/p-3

> <PUBCHEM_IUPAC_INCHIKEY>
MJRFDVWKTFJAPF-UHFFFAOYSA-K

> <PUBCHEM_EXACT_MASS>
315.88005

> <PUBCHEM_MOLECULAR_FORMULA>
Cl3H2IrO

> <PUBCHEM_MOLECULAR_WEIGHT>
316.59

> <PUBCHEM_SMILES>
O.Cl[Ir](Cl)Cl

> <PUBCHEM_CONNECTIVITY_SMILES>
O.Cl[Ir](Cl)Cl

> <PUBCHEM_CACTVS_TPSA>
1

> <PUBCHEM_MONOISOTOPIC_WEIGHT>
315.88005

> <PUBCHEM_TOTAL_CHARGE>
0

> <PUBCHEM_HEAVY_ATOM_COUNT>
5

> <PUBCHEM_ATOM_DEF_STEREO_COUNT>
0

> <PUBCHEM_ATOM_UDEF_STEREO_COUNT>
0

> <PUBCHEM_BOND_DEF_STEREO_COUNT>
0

> <PUBCHEM_BOND_UDEF_STEREO_COUNT>
0

> <PUBCHEM_ISOTOPIC_ATOM_COUNT>
0

> <PUBCHEM_COMPONENT_COUNT>
2

> <PUBCHEM_CACTVS_TAUTO_COUNT>
-1

> <PUBCHEM_COORDINATE_TYPE>
1
5
255

$$$$
