25113453
  -OEChem-08152607252D

  5  4  0     0  0  0  0  0  0999 V2000
    2.7071    0.0000    0.0000 Ir  0  0  0  0  0  0  0  0  0  0  0  0
    2.0000   -0.7071    0.0000 I   0  0  0  0  0  0  0  0  0  0  0  0
    3.4142   -0.7071    0.0000 I   0  0  0  0  0  0  0  0  0  0  0  0
    3.4142    0.7071    0.0000 I   0  0  0  0  0  0  0  0  0  0  0  0
    2.0000    0.7071    0.0000 I   0  0  0  0  0  0  0  0  0  0  0  0
  1  2  1  1  0  0  0
  1  3  1  1  0  0  0
  1  4  1  6  0  0  0
  1  5  1  6  0  0  0
M  END
> <PUBCHEM_COMPOUND_CID>
25113453

> <PUBCHEM_COMPOUND_CANONICALIZED>
1

> <PUBCHEM_CACTVS_COMPLEXITY>
19.1

> <PUBCHEM_CACTVS_HBOND_ACCEPTOR>
0

> <PUBCHEM_CACTVS_HBOND_DONOR>
0

> <PUBCHEM_CACTVS_ROTATABLE_BOND>
0

> <PUBCHEM_CACTVS_SUBSKEYS>
AAADcQAAAAAAA4AAAAAACAAAAAAAAAAAAAAAAAAAAAAAAAAAAAAAAAAAAAAAAAAAAAAAAAAAAAAAAAAAAAAAAAAAAAAAAAAAAAAAAAAAAAAAAAAAAAAAAAAAAAAAAAAAAAAAAAAAAAAAAAAAAAAAAAAAAA==

> <PUBCHEM_IUPAC_OPENEYE_NAME>
tetraiodoiridium

> <PUBCHEM_IUPAC_CAS_NAME>
tetraiodoiridium

> <PUBCHEM_IUPAC_NAME_MARKUP>
tetraiodoiridium

> <PUBCHEM_IUPAC_NAME>
tetraiodoiridium

> <PUBCHEM_IUPAC_SYSTEMATIC_NAME>
tetrakis(iodanyl)iridium

> <PUBCHEM_IUPAC_TRADITIONAL_NAME>
tetraiodoiridium

> <PUBCHEM_IUPAC_INCHI>
InChI=1S/4HI.Ir/h4*1H;/q;;;;+4/p-4

> <PUBCHEM_IUPAC_INCHIKEY>
BUUWLOZTIYBNKB-UHFFFAOYSA-J

> <PUBCHEM_EXACT_MASS>
700.5808

> <PUBCHEM_MOLECULAR_FORMULA>
I4Ir

> <PUBCHEM_MOLECULAR_WEIGHT>
699.83

> <PUBCHEM_SMILES>
I[Ir](I)(I)I

> <PUBCHEM_CONNECTIVITY_SMILES>
I[Ir](I)(I)I

> <PUBCHEM_CACTVS_TPSA>
0

> <PUBCHEM_MONOISOTOPIC_WEIGHT>
700.5808

> <PUBCHEM_TOTAL_CHARGE>
0

> <PUBCHEM_HEAVY_ATOM_COUNT>
5

> <PUBCHEM_ATOM_DEF_STEREO_COUNT>
0

> <PUBCHEM_ATOM_UDEF_STEREO_COUNT>
0

> <PUBCHEM_BOND_DEF_STEREO_COUNT>
0

> <PUBCHEM_BOND_UDEF_STEREO_COUNT>
0

> <PUBCHEM_ISOTOPIC_ATOM_COUNT>
0

> <PUBCHEM_COMPONENT_COUNT>
1

> <PUBCHEM_CACTVS_TAUTO_COUNT>
-1

> <PUBCHEM_COORDINATE_TYPE>
1
5
255

> <PUBCHEM_BONDANNOTATIONS>
1  2  5
1  3  5
1  4  6
1  5  6

$$$$
