19886946
  -OEChem-08152607092D

  4  0  0     0  0  0  0  0  0999 V2000
    2.8660    0.2500    0.0000 Ir  0  1  0  0  0  0  0  0  0  0  0  0
    3.7320    0.7500    0.0000 F   0  5  0  0  0  0  0  0  0  0  0  0
    2.0000    0.7500    0.0000 F   0  5  0  0  0  0  0  0  0  0  0  0
    2.8660   -0.7500    0.0000 F   0  5  0  0  0  0  0  0  0  0  0  0
M  CHG  4   1   3   2  -1   3  -1   4  -1
M  END
> <PUBCHEM_COMPOUND_CID>
19886946

> <PUBCHEM_COMPOUND_CANONICALIZED>
1

> <PUBCHEM_CACTVS_COMPLEXITY>
0

> <PUBCHEM_CACTVS_HBOND_ACCEPTOR>
3

> <PUBCHEM_CACTVS_HBOND_DONOR>
0

> <PUBCHEM_CACTVS_ROTATABLE_BOND>
0

> <PUBCHEM_CACTVS_SUBSKEYS>
AAADcQAAAYAAAAAAAAAACAAAAAAAAAAAAAAAAAAAAAAAAAAAAAAAAAAAAAAAAAAAAAAAAAAAAAAAAAAAAAAAAAAAAAAAAAAAAAAAAAAAAAAAAAAAAAAAAAAAAAAAAAAAAAAAAAAAAAAAAAAAAAAAAAAAAA==

> <PUBCHEM_IUPAC_OPENEYE_NAME>
iridium(3+) trifluoride

> <PUBCHEM_IUPAC_CAS_NAME>
iridium(3+) trifluoride

> <PUBCHEM_IUPAC_NAME_MARKUP>
iridium(3+) trifluoride

> <PUBCHEM_IUPAC_NAME>
iridium(3+) trifluoride

> <PUBCHEM_IUPAC_SYSTEMATIC_NAME>
iridium(3+) trifluoride

> <PUBCHEM_IUPAC_TRADITIONAL_NAME>
iridium(3+) trifluoride

> <PUBCHEM_IUPAC_INCHI>
InChI=1S/3FH.Ir/h3*1H;/q;;;+3/p-3

> <PUBCHEM_IUPAC_INCHIKEY>
VNCUSYIKPZQFST-UHFFFAOYSA-K

> <PUBCHEM_EXACT_MASS>
249.95813

> <PUBCHEM_MOLECULAR_FORMULA>
F3Ir

> <PUBCHEM_MOLECULAR_WEIGHT>
249.21

> <PUBCHEM_SMILES>
[F-].[F-].[F-].[Ir+3]

> <PUBCHEM_CONNECTIVITY_SMILES>
[F-].[F-].[F-].[Ir+3]

> <PUBCHEM_CACTVS_TPSA>
0

> <PUBCHEM_MONOISOTOPIC_WEIGHT>
249.95813

> <PUBCHEM_TOTAL_CHARGE>
0

> <PUBCHEM_HEAVY_ATOM_COUNT>
4

> <PUBCHEM_ATOM_DEF_STEREO_COUNT>
0

> <PUBCHEM_ATOM_UDEF_STEREO_COUNT>
0

> <PUBCHEM_BOND_DEF_STEREO_COUNT>
0

> <PUBCHEM_BOND_UDEF_STEREO_COUNT>
0

> <PUBCHEM_ISOTOPIC_ATOM_COUNT>
0

> <PUBCHEM_COMPONENT_COUNT>
4

> <PUBCHEM_CACTVS_TAUTO_COUNT>
-1

> <PUBCHEM_COORDINATE_TYPE>
1
5
255

$$$$
