82789
  -OEChem-08152606212D

  2  1  0     0  0  0  0  0  0999 V2000
    3.0000    0.0000    0.0000 Fe  0  0  0  0  0  0  0  0  0  0  0  0
    2.0000    0.0000    0.0000 B   0  0  0  0  0  0  0  0  0  0  0  0
  1  2  3  0  0  0  0
M  END
> <PUBCHEM_COMPOUND_CID>
82789

> <PUBCHEM_COMPOUND_CANONICALIZED>
1

> <PUBCHEM_CACTVS_COMPLEXITY>
10

> <PUBCHEM_CACTVS_HBOND_ACCEPTOR>
0

> <PUBCHEM_CACTVS_HBOND_DONOR>
0

> <PUBCHEM_CACTVS_ROTATABLE_BOND>
0

> <PUBCHEM_CACTVS_SUBSKEYS>
AAADcQIAAAAAAAAgAAAAAAAAAAAAAAAAAAAAAAAAAAAAAAAAAAAAAAAAAAAAAAAAAAAAAAAAAAAAAAAAAAAAAAAAAAAAAAAAAAAAAAAAAAAAAAAAAAAAAAAAAAAAAAAAAAAAAAAAAAAAAAAAAAAAAAAAAA==

> <PUBCHEM_IUPAC_OPENEYE_NAME>
boranylidyneiron

> <PUBCHEM_IUPAC_CAS_NAME>
boranylidyneiron

> <PUBCHEM_IUPAC_NAME_MARKUP>
boranylidyneiron

> <PUBCHEM_IUPAC_NAME>
boranylidyneiron

> <PUBCHEM_IUPAC_SYSTEMATIC_NAME>
boranylidyneiron

> <PUBCHEM_IUPAC_TRADITIONAL_NAME>
borylidyneiron

> <PUBCHEM_IUPAC_INCHI>
InChI=1S/B.Fe

> <PUBCHEM_IUPAC_INCHIKEY>
ZDVYABSQRRRIOJ-UHFFFAOYSA-N

> <PUBCHEM_EXACT_MASS>
66.944241

> <PUBCHEM_MOLECULAR_FORMULA>
BFe

> <PUBCHEM_MOLECULAR_WEIGHT>
66.66

> <PUBCHEM_SMILES>
B#[Fe]

> <PUBCHEM_CONNECTIVITY_SMILES>
B#[Fe]

> <PUBCHEM_CACTVS_TPSA>
0

> <PUBCHEM_MONOISOTOPIC_WEIGHT>
66.944241

> <PUBCHEM_TOTAL_CHARGE>
0

> <PUBCHEM_HEAVY_ATOM_COUNT>
2

> <PUBCHEM_ATOM_DEF_STEREO_COUNT>
0

> <PUBCHEM_ATOM_UDEF_STEREO_COUNT>
0

> <PUBCHEM_BOND_DEF_STEREO_COUNT>
0

> <PUBCHEM_BOND_UDEF_STEREO_COUNT>
0

> <PUBCHEM_ISOTOPIC_ATOM_COUNT>
0

> <PUBCHEM_COMPONENT_COUNT>
1

> <PUBCHEM_CACTVS_TAUTO_COUNT>
-1

> <PUBCHEM_COORDINATE_TYPE>
1
5
255

$$$$
