165960
  -OEChem-08152606382D

  8  4  0     0  0  0  0  0  0999 V2000
    0.2869    0.0000    0.0000 Fe  0  0  0  0  0  0  0  0  0  0  0  0
    3.0739    0.2869    0.0000 Fe  0  0  0  0  0  0  0  0  0  0  0  0
    3.0739    2.7869    0.0000 Fe  0  0  0  0  0  0  0  0  0  0  0  0
    0.5369    3.0369    0.0000 C   0  0  0  0  0  0  0  0  0  0  0  0
    1.0739    3.3469    0.0000 H   0  0  0  0  0  0  0  0  0  0  0  0
    0.0000    2.7269    0.0000 H   0  0  0  0  0  0  0  0  0  0  0  0
    0.2269    3.5739    0.0000 H   0  0  0  0  0  0  0  0  0  0  0  0
    0.8469    2.5000    0.0000 H   0  0  0  0  0  0  0  0  0  0  0  0
  4  5  1  0  0  0  0
  4  6  1  0  0  0  0
  4  7  1  0  0  0  0
  4  8  1  0  0  0  0
M  END
> <PUBCHEM_COMPOUND_CID>
165960

> <PUBCHEM_COMPOUND_CANONICALIZED>
1

> <PUBCHEM_CACTVS_COMPLEXITY>
0

> <PUBCHEM_CACTVS_HBOND_ACCEPTOR>
0

> <PUBCHEM_CACTVS_HBOND_DONOR>
0

> <PUBCHEM_CACTVS_ROTATABLE_BOND>
0

> <PUBCHEM_CACTVS_SUBSKEYS>
AAADcYAAAAAAAAAgAAAAAAAAAAAAAAAAAAAAAAAAAAAAAAAAAAAAEAAAAAAAAAAAAAACAAAAAAAAAAAAAAAAAAAAAAAAAAAAAAAAAAAAAAAAAAAAAAAAAAAAAAAAAAAAAAAAAAAAAAAAAAAAAAAAAAAAAA==

> <PUBCHEM_IUPAC_OPENEYE_NAME>
iron;methane

> <PUBCHEM_IUPAC_CAS_NAME>
iron;methane

> <PUBCHEM_IUPAC_NAME_MARKUP>
iron;methane

> <PUBCHEM_IUPAC_NAME>
iron;methane

> <PUBCHEM_IUPAC_SYSTEMATIC_NAME>
iron;methane

> <PUBCHEM_IUPAC_TRADITIONAL_NAME>
iron;methane

> <PUBCHEM_IUPAC_INCHI>
InChI=1S/CH4.3Fe/h1H4;;;

> <PUBCHEM_IUPAC_INCHIKEY>
KSOKAHYVTMZFBJ-UHFFFAOYSA-N

> <PUBCHEM_EXACT_MASS>
183.836107

> <PUBCHEM_MOLECULAR_FORMULA>
CH4Fe3

> <PUBCHEM_MOLECULAR_WEIGHT>
183.58

> <PUBCHEM_SMILES>
C.[Fe].[Fe].[Fe]

> <PUBCHEM_CONNECTIVITY_SMILES>
C.[Fe].[Fe].[Fe]

> <PUBCHEM_CACTVS_TPSA>
0

> <PUBCHEM_MONOISOTOPIC_WEIGHT>
183.836107

> <PUBCHEM_TOTAL_CHARGE>
0

> <PUBCHEM_HEAVY_ATOM_COUNT>
4

> <PUBCHEM_ATOM_DEF_STEREO_COUNT>
0

> <PUBCHEM_ATOM_UDEF_STEREO_COUNT>
0

> <PUBCHEM_BOND_DEF_STEREO_COUNT>
0

> <PUBCHEM_BOND_UDEF_STEREO_COUNT>
0

> <PUBCHEM_ISOTOPIC_ATOM_COUNT>
0

> <PUBCHEM_COMPONENT_COUNT>
4

> <PUBCHEM_CACTVS_TAUTO_COUNT>
-1

> <PUBCHEM_COORDINATE_TYPE>
1
5
255

$$$$
