85017
  -OEChem-08152604552D

  4  0  0     0  0  0  0  0  0999 V2000
    3.7321    0.7500    0.0000 I   0  5  0  0  0  0  0  0  0  0  0  0
    2.0000    0.7500    0.0000 I   0  5  0  0  0  0  0  0  0  0  0  0
    2.8660   -0.7500    0.0000 I   0  5  0  0  0  0  0  0  0  0  0  0
    2.8660    0.2500    0.0000 Fe  0  1  0  0  0  0  0  0  0  0  0  0
M  CHG  4   1  -1   2  -1   3  -1   4   3
M  END
> <PUBCHEM_COMPOUND_CID>
85017

> <PUBCHEM_COMPOUND_CANONICALIZED>
1

> <PUBCHEM_CACTVS_COMPLEXITY>
0

> <PUBCHEM_CACTVS_HBOND_ACCEPTOR>
3

> <PUBCHEM_CACTVS_HBOND_DONOR>
0

> <PUBCHEM_CACTVS_ROTATABLE_BOND>
0

> <PUBCHEM_CACTVS_SUBSKEYS>
AAADcQAAAAAAAwAgAAAAAAAAAAAAAAAAAAAAAAAAAAAAAAAAAAAAAAAAAAAAAAAAAAAAAAAAAAAAAAAAAAAAAAAAAAAAAAAAAAAAAAAAAAAAAAAAAAAAAAAAAAAAAAAAAAAAAAAAAAAAAAAAAAAAAAAAAA==

> <PUBCHEM_IUPAC_OPENEYE_NAME>
ferric triiodide

> <PUBCHEM_IUPAC_CAS_NAME>
iron(3+) triiodide

> <PUBCHEM_IUPAC_NAME_MARKUP>
iron(3+) triiodide

> <PUBCHEM_IUPAC_NAME>
iron(3+) triiodide

> <PUBCHEM_IUPAC_SYSTEMATIC_NAME>
iron(3+) triiodide

> <PUBCHEM_IUPAC_TRADITIONAL_NAME>
ferric triiodide

> <PUBCHEM_IUPAC_INCHI>
InChI=1S/Fe.3HI/h;3*1H/q+3;;;/p-3

> <PUBCHEM_IUPAC_INCHIKEY>
HEJPGFRXUXOTGM-UHFFFAOYSA-K

> <PUBCHEM_EXACT_MASS>
436.6484

> <PUBCHEM_MOLECULAR_FORMULA>
FeI3

> <PUBCHEM_MOLECULAR_WEIGHT>
436.56

> <PUBCHEM_SMILES>
[Fe+3].[I-].[I-].[I-]

> <PUBCHEM_CONNECTIVITY_SMILES>
[Fe+3].[I-].[I-].[I-]

> <PUBCHEM_CACTVS_TPSA>
0

> <PUBCHEM_MONOISOTOPIC_WEIGHT>
436.6484

> <PUBCHEM_TOTAL_CHARGE>
0

> <PUBCHEM_HEAVY_ATOM_COUNT>
4

> <PUBCHEM_ATOM_DEF_STEREO_COUNT>
0

> <PUBCHEM_ATOM_UDEF_STEREO_COUNT>
0

> <PUBCHEM_BOND_DEF_STEREO_COUNT>
0

> <PUBCHEM_BOND_UDEF_STEREO_COUNT>
0

> <PUBCHEM_ISOTOPIC_ATOM_COUNT>
0

> <PUBCHEM_COMPONENT_COUNT>
4

> <PUBCHEM_CACTVS_TAUTO_COUNT>
-1

> <PUBCHEM_COORDINATE_TYPE>
1
5
255

$$$$
