6432015
  -OEChem-08152606082D

  4  2  0     0  0  0  0  0  0999 V2000
    2.0000   -0.6550    0.0000 La  0  0  0  0  0  0  0  0  0  0  0  0
    2.8660   -0.1550    0.0000 C   0  5  0  0  0  0  0  0  0  0  0  0
    3.7321    0.3450    0.0000 C   0  0  0  0  0  0  0  0  0  0  0  0
    4.2690    0.6550    0.0000 H   0  0  0  0  0  0  0  0  0  0  0  0
  2  3  3  0  0  0  0
  3  4  1  0  0  0  0
M  CHG  1   2  -1
M  END
> <PUBCHEM_COMPOUND_CID>
6432015

> <PUBCHEM_COMPOUND_CANONICALIZED>
1

> <PUBCHEM_CACTVS_COMPLEXITY>
10.8

> <PUBCHEM_CACTVS_HBOND_ACCEPTOR>
1

> <PUBCHEM_CACTVS_HBOND_DONOR>
0

> <PUBCHEM_CACTVS_ROTATABLE_BOND>
0

> <PUBCHEM_CACTVS_SUBSKEYS>
AAADcQBAAAAAAAAAAAAAABAAAAAAAAAAAAAAAAAAAAAAAAAAAAAAGAAAAAAAAACAAAAAAAAAAABACAAAAAAAAAAAAAAAAAAAAAAAAAAAAAAAAAAAAAAAAAAAAAAAAAAAAAAAAAAAAAAAAAAAAAAAAAAAAA==

> <PUBCHEM_IUPAC_OPENEYE_NAME>
acetylene;lanthanum

> <PUBCHEM_IUPAC_CAS_NAME>
ethyne;lanthanum

> <PUBCHEM_IUPAC_NAME_MARKUP>
ethyne;lanthanum

> <PUBCHEM_IUPAC_NAME>
ethyne;lanthanum

> <PUBCHEM_IUPAC_SYSTEMATIC_NAME>
ethyne;lanthanum

> <PUBCHEM_IUPAC_TRADITIONAL_NAME>
acetylene;lanthanum

> <PUBCHEM_IUPAC_INCHI>
InChI=1S/C2H.La/c1-2;/h1H;/q-1;

> <PUBCHEM_IUPAC_INCHIKEY>
DNKZUPRFMGIXEU-UHFFFAOYSA-N

> <PUBCHEM_EXACT_MASS>
163.914188

> <PUBCHEM_MOLECULAR_FORMULA>
C2HLa-

> <PUBCHEM_MOLECULAR_WEIGHT>
163.93

> <PUBCHEM_SMILES>
C#[C-].[La]

> <PUBCHEM_CONNECTIVITY_SMILES>
C#[C-].[La]

> <PUBCHEM_CACTVS_TPSA>
0

> <PUBCHEM_MONOISOTOPIC_WEIGHT>
163.914188

> <PUBCHEM_TOTAL_CHARGE>
-1

> <PUBCHEM_HEAVY_ATOM_COUNT>
3

> <PUBCHEM_ATOM_DEF_STEREO_COUNT>
0

> <PUBCHEM_ATOM_UDEF_STEREO_COUNT>
0

> <PUBCHEM_BOND_DEF_STEREO_COUNT>
0

> <PUBCHEM_BOND_UDEF_STEREO_COUNT>
0

> <PUBCHEM_ISOTOPIC_ATOM_COUNT>
0

> <PUBCHEM_COMPONENT_COUNT>
2

> <PUBCHEM_CACTVS_TAUTO_COUNT>
-1

> <PUBCHEM_NONSTANDARDBOND>
1  2  6

> <PUBCHEM_COORDINATE_TYPE>
1
5
255

$$$$
