129760958
  -OEChem-08152605392D

 10  6  0     0  0  0  0  0  0999 V2000
    4.5981    0.7500    0.0000 La  0  1  0  0  0  0  0  0  0  0  0  0
    5.4641    1.2500    0.0000 S   0  5  0  0  0  0  0  0  0  0  0  0
    3.7320    1.2500    0.0000 S   0  5  0  0  0  0  0  0  0  0  0  0
    4.5981   -0.2500    0.0000 S   0  5  0  0  0  0  0  0  0  0  0  0
    7.1962    0.2500    0.0000 N   0  0  0  0  0  0  0  0  0  0  0  0
    2.0000    0.2500    0.0000 N   0  0  0  0  0  0  0  0  0  0  0  0
    2.8660   -1.2500    0.0000 N   0  0  0  0  0  0  0  0  0  0  0  0
    6.3301    0.7500    0.0000 C   0  0  0  0  0  0  0  0  0  0  0  0
    2.8660    0.7500    0.0000 C   0  0  0  0  0  0  0  0  0  0  0  0
    3.7320   -0.7500    0.0000 C   0  0  0  0  0  0  0  0  0  0  0  0
  2  8  1  0  0  0  0
  3  9  1  0  0  0  0
  4 10  1  0  0  0  0
  5  8  3  0  0  0  0
  6  9  3  0  0  0  0
  7 10  3  0  0  0  0
M  CHG  4   1   3   2  -1   3  -1   4  -1
M  END
> <PUBCHEM_COMPOUND_CID>
129760958

> <PUBCHEM_COMPOUND_CANONICALIZED>
1

> <PUBCHEM_CACTVS_COMPLEXITY>
132

> <PUBCHEM_CACTVS_HBOND_ACCEPTOR>
6

> <PUBCHEM_CACTVS_HBOND_DONOR>
0

> <PUBCHEM_CACTVS_ROTATABLE_BOND>
0

> <PUBCHEM_CACTVS_SUBSKEYS>
AAADcQBDAABgAAAAAAAAABAAAAAAAAAAAAAAAAAAAAAAAAAAAAAABAQAAAAAAAAAAAAAAAAAAAAQAAAAAAAAAAAAAAAAAAAAAAAAAAAAAAAAAAAAAAAAAAAAAAAAAAAAAAAAAAAAAAAAAAAAAAAAAAAAAA==

> <PUBCHEM_IUPAC_OPENEYE_NAME>
lanthanum(3+) trithiocyanate

> <PUBCHEM_IUPAC_CAS_NAME>
lanthanum(3+) trithiocyanate

> <PUBCHEM_IUPAC_NAME_MARKUP>
lanthanum(3+) trithiocyanate

> <PUBCHEM_IUPAC_NAME>
lanthanum(3+) trithiocyanate

> <PUBCHEM_IUPAC_SYSTEMATIC_NAME>
lanthanum(3+) trithiocyanate

> <PUBCHEM_IUPAC_TRADITIONAL_NAME>
lanthanum(3+) trithiocyanate

> <PUBCHEM_IUPAC_INCHI>
InChI=1S/3CHNS.La/c3*2-1-3;/h3*3H;/q;;;+3/p-3

> <PUBCHEM_IUPAC_INCHIKEY>
VDDBPPDQYNBTRJ-UHFFFAOYSA-K

> <PUBCHEM_EXACT_MASS>
312.831798

> <PUBCHEM_MOLECULAR_FORMULA>
C3LaN3S3

> <PUBCHEM_MOLECULAR_WEIGHT>
313.2

> <PUBCHEM_SMILES>
C(#N)[S-].C(#N)[S-].C(#N)[S-].[La+3]

> <PUBCHEM_CONNECTIVITY_SMILES>
C(#N)[S-].C(#N)[S-].C(#N)[S-].[La+3]

> <PUBCHEM_CACTVS_TPSA>
74.4

> <PUBCHEM_MONOISOTOPIC_WEIGHT>
312.831798

> <PUBCHEM_TOTAL_CHARGE>
0

> <PUBCHEM_HEAVY_ATOM_COUNT>
10

> <PUBCHEM_ATOM_DEF_STEREO_COUNT>
0

> <PUBCHEM_ATOM_UDEF_STEREO_COUNT>
0

> <PUBCHEM_BOND_DEF_STEREO_COUNT>
0

> <PUBCHEM_BOND_UDEF_STEREO_COUNT>
0

> <PUBCHEM_ISOTOPIC_ATOM_COUNT>
0

> <PUBCHEM_COMPONENT_COUNT>
4

> <PUBCHEM_CACTVS_TAUTO_COUNT>
-1

> <PUBCHEM_NONSTANDARDBOND>
1  2  6
1  3  6
1  4  6

> <PUBCHEM_COORDINATE_TYPE>
1
5
255

$$$$
