83675
  -OEChem-08152604292D

  4  3  0     0  0  0  0  0  0999 V2000
    2.8660    0.2500    0.0000 La  0  0  0  0  0  0  0  0  0  0  0  0
    3.7321    0.7500    0.0000 F   0  0  0  0  0  0  0  0  0  0  0  0
    2.0000    0.7500    0.0000 F   0  0  0  0  0  0  0  0  0  0  0  0
    2.8660   -0.7500    0.0000 F   0  0  0  0  0  0  0  0  0  0  0  0
  1  2  1  0  0  0  0
  1  3  1  0  0  0  0
  1  4  1  0  0  0  0
M  END
> <PUBCHEM_COMPOUND_CID>
83675

> <PUBCHEM_COMPOUND_CANONICALIZED>
1

> <PUBCHEM_CACTVS_COMPLEXITY>
8

> <PUBCHEM_CACTVS_HBOND_ACCEPTOR>
3

> <PUBCHEM_CACTVS_HBOND_DONOR>
0

> <PUBCHEM_CACTVS_ROTATABLE_BOND>
0

> <PUBCHEM_CACTVS_SUBSKEYS>
AAADcQAAAYAAAAAAAAAAABAAAAAAAAAAAAAAAAAAAAAAAAAAAAAAAAAAAAAAAAAAAAAAAAAAAAAAAAAAAAAAAAAAAAAAAAAAAAAAAAAAAAAAAAAAAAAAAAAAAAAAAAAAAAAAAAAAAAAAAAAAAAAAAAAAAA==

> <PUBCHEM_IUPAC_OPENEYE_NAME>
trifluorolanthanum

> <PUBCHEM_IUPAC_CAS_NAME>
trifluorolanthanum

> <PUBCHEM_IUPAC_NAME_MARKUP>
trifluorolanthanum

> <PUBCHEM_IUPAC_NAME>
trifluorolanthanum

> <PUBCHEM_IUPAC_SYSTEMATIC_NAME>
tris(fluoranyl)lanthanum

> <PUBCHEM_IUPAC_TRADITIONAL_NAME>
trifluorolanthanum

> <PUBCHEM_IUPAC_INCHI>
InChI=1S/3FH.La/h3*1H;/q;;;+3/p-3

> <PUBCHEM_IUPAC_INCHIKEY>
BYMUNNMMXKDFEZ-UHFFFAOYSA-K

> <PUBCHEM_EXACT_MASS>
195.901572

> <PUBCHEM_MOLECULAR_FORMULA>
F3La

> <PUBCHEM_MOLECULAR_WEIGHT>
195.9007

> <PUBCHEM_SMILES>
F[La](F)F

> <PUBCHEM_CONNECTIVITY_SMILES>
F[La](F)F

> <PUBCHEM_CACTVS_TPSA>
0

> <PUBCHEM_MONOISOTOPIC_WEIGHT>
195.901572

> <PUBCHEM_TOTAL_CHARGE>
0

> <PUBCHEM_HEAVY_ATOM_COUNT>
4

> <PUBCHEM_ATOM_DEF_STEREO_COUNT>
0

> <PUBCHEM_ATOM_UDEF_STEREO_COUNT>
0

> <PUBCHEM_BOND_DEF_STEREO_COUNT>
0

> <PUBCHEM_BOND_UDEF_STEREO_COUNT>
0

> <PUBCHEM_ISOTOPIC_ATOM_COUNT>
0

> <PUBCHEM_COMPONENT_COUNT>
1

> <PUBCHEM_CACTVS_TAUTO_COUNT>
-1

> <PUBCHEM_COORDINATE_TYPE>
1
5
255

$$$$
