10219817
  -OEChem-08152607112D

  5  3  0     0  0  0  0  0  0999 V2000
    2.7071   -0.1464    0.0000 La  0  1  0  0  0  0  0  0  0  0  0  0
    2.7071    0.8536    0.0000 O   0  5  0  0  0  0  0  0  0  0  0  0
    3.7071   -0.1464    0.0000 O   0  5  0  0  0  0  0  0  0  0  0  0
    2.0000   -0.8536    0.0000 O   0  5  0  0  0  0  0  0  0  0  0  0
    3.7071    0.8536    0.0000 B   0  0  0  0  0  0  0  0  0  0  0  0
  2  5  1  0  0  0  0
  3  5  1  0  0  0  0
  4  5  1  0  0  0  0
M  CHG  4   1   3   2  -1   3  -1   4  -1
M  END
> <PUBCHEM_COMPOUND_CID>
10219817

> <PUBCHEM_COMPOUND_CANONICALIZED>
1

> <PUBCHEM_CACTVS_COMPLEXITY>
8

> <PUBCHEM_CACTVS_HBOND_ACCEPTOR>
3

> <PUBCHEM_CACTVS_HBOND_DONOR>
0

> <PUBCHEM_CACTVS_ROTATABLE_BOND>
0

> <PUBCHEM_CACTVS_SUBSKEYS>
AAADcQIAMAAAAAAAAAAAABAAAAAAAAAAAAAAAAAAAAAAAAAAAAAIAAAAAAAAAAAAAAAAAAAAAAAAAAAAAAAAAAAAAAAAAAAAAAAAAAAAAAAAAAAAAAAAAAAAAAAAAAAAAAAAAAAAAAAAAAAAAAAAAAAAAA==

> <PUBCHEM_IUPAC_OPENEYE_NAME>
lanthanum(3+) borate

> <PUBCHEM_IUPAC_CAS_NAME>
lanthanum(3+) borate

> <PUBCHEM_IUPAC_NAME_MARKUP>
lanthanum(3+) borate

> <PUBCHEM_IUPAC_NAME>
lanthanum(3+) borate

> <PUBCHEM_IUPAC_SYSTEMATIC_NAME>
lanthanum(3+) borate

> <PUBCHEM_IUPAC_TRADITIONAL_NAME>
lanthanum(3+) borate

> <PUBCHEM_IUPAC_INCHI>
InChI=1S/BO3.La/c2-1(3)4;/q-3;+3

> <PUBCHEM_IUPAC_INCHIKEY>
GJJSDZSDOYNJSW-UHFFFAOYSA-N

> <PUBCHEM_EXACT_MASS>
197.900412

> <PUBCHEM_MOLECULAR_FORMULA>
BLaO3

> <PUBCHEM_MOLECULAR_WEIGHT>
197.72

> <PUBCHEM_SMILES>
B([O-])([O-])[O-].[La+3]

> <PUBCHEM_CONNECTIVITY_SMILES>
B([O-])([O-])[O-].[La+3]

> <PUBCHEM_CACTVS_TPSA>
69.2

> <PUBCHEM_MONOISOTOPIC_WEIGHT>
197.900412

> <PUBCHEM_TOTAL_CHARGE>
0

> <PUBCHEM_HEAVY_ATOM_COUNT>
5

> <PUBCHEM_ATOM_DEF_STEREO_COUNT>
0

> <PUBCHEM_ATOM_UDEF_STEREO_COUNT>
0

> <PUBCHEM_BOND_DEF_STEREO_COUNT>
0

> <PUBCHEM_BOND_UDEF_STEREO_COUNT>
0

> <PUBCHEM_ISOTOPIC_ATOM_COUNT>
0

> <PUBCHEM_COMPONENT_COUNT>
2

> <PUBCHEM_CACTVS_TAUTO_COUNT>
-1

> <PUBCHEM_COORDINATE_TYPE>
1
5
255

$$$$
