117627
  -OEChem-08152605532D

  2  1  0     0  0  0  0  0  0999 V2000
    3.0000    0.0000    0.0000 La  0  0  0  0  0  0  0  0  0  0  0  0
    2.0000    0.0000    0.0000 N   0  0  0  0  0  0  0  0  0  0  0  0
  1  2  3  0  0  0  0
M  END
> <PUBCHEM_COMPOUND_CID>
117627

> <PUBCHEM_COMPOUND_CANONICALIZED>
1

> <PUBCHEM_CACTVS_COMPLEXITY>
10

> <PUBCHEM_CACTVS_HBOND_ACCEPTOR>
1

> <PUBCHEM_CACTVS_HBOND_DONOR>
0

> <PUBCHEM_CACTVS_ROTATABLE_BOND>
0

> <PUBCHEM_CACTVS_SUBSKEYS>
AAADcQACAAAAAAAAAAAAABAAAAAAAAAAAAAAAAAAAAAAAAAAAAAAAAAAAAAAAAAAAAAAAAAAAAAAAAAAAAAAAAAAAAAAAAAAAAAAAAAAAAAAAAAAAAAAAAAAAAAAAAAAAAAAAAAAAAAAAAAAAAAAAAAAAA==

> <PUBCHEM_IUPAC_OPENEYE_NAME>
nitridolanthanum

> <PUBCHEM_IUPAC_CAS_NAME>
nitrilolanthanum

> <PUBCHEM_IUPAC_NAME_MARKUP>
azanylidynelanthanum

> <PUBCHEM_IUPAC_NAME>
azanylidynelanthanum

> <PUBCHEM_IUPAC_SYSTEMATIC_NAME>
azanylidynelanthanum

> <PUBCHEM_IUPAC_TRADITIONAL_NAME>
nitrilolanthanum

> <PUBCHEM_IUPAC_INCHI>
InChI=1S/La.N

> <PUBCHEM_IUPAC_INCHIKEY>
QCLQZCOGUCNIOC-UHFFFAOYSA-N

> <PUBCHEM_EXACT_MASS>
152.909437

> <PUBCHEM_MOLECULAR_FORMULA>
LaN

> <PUBCHEM_MOLECULAR_WEIGHT>
152.912

> <PUBCHEM_SMILES>
N#[La]

> <PUBCHEM_CONNECTIVITY_SMILES>
N#[La]

> <PUBCHEM_CACTVS_TPSA>
23.8

> <PUBCHEM_MONOISOTOPIC_WEIGHT>
152.909437

> <PUBCHEM_TOTAL_CHARGE>
0

> <PUBCHEM_HEAVY_ATOM_COUNT>
2

> <PUBCHEM_ATOM_DEF_STEREO_COUNT>
0

> <PUBCHEM_ATOM_UDEF_STEREO_COUNT>
0

> <PUBCHEM_BOND_DEF_STEREO_COUNT>
0

> <PUBCHEM_BOND_UDEF_STEREO_COUNT>
0

> <PUBCHEM_ISOTOPIC_ATOM_COUNT>
0

> <PUBCHEM_COMPONENT_COUNT>
1

> <PUBCHEM_CACTVS_TAUTO_COUNT>
-1

> <PUBCHEM_COORDINATE_TYPE>
1
5
255

$$$$
