4389803
  -OEChem-08152605032D

  2  1  0     0  0  0  0  0  0999 V2000
    3.0000    0.0000    0.0000 Pb  0  0  0  0  0  0  0  0  0  0  0  0
    2.0000    0.0000    0.0000 Te  0  0  0  0  0  0  0  0  0  0  0  0
  1  2  2  0  0  0  0
M  END
> <PUBCHEM_COMPOUND_CID>
4389803

> <PUBCHEM_COMPOUND_CANONICALIZED>
1

> <PUBCHEM_CACTVS_COMPLEXITY>
2

> <PUBCHEM_CACTVS_HBOND_ACCEPTOR>
0

> <PUBCHEM_CACTVS_HBOND_DONOR>
0

> <PUBCHEM_CACTVS_ROTATABLE_BOND>
0

> <PUBCHEM_CACTVS_SUBSKEYS>
AAADcQAAAAAAAAAAAAAgAEAAAAAAAAAAAAAAAAAAAAAAAAAAAAAAAAAAAAAAAAAAAAAAAAAAAAAAAAAAAAAAAAAAAAAAAAAAAAAAAAAAAAAAAAAAAAAAAAAAAAAAAAAAAAAAAAAAAAAAAAAAAAAAAAAAAA==

> <PUBCHEM_IUPAC_OPENEYE_NAME>
telluroxolead

> <PUBCHEM_IUPAC_CAS_NAME>
tellanylidenelead

> <PUBCHEM_IUPAC_NAME_MARKUP>
tellanylidenelead

> <PUBCHEM_IUPAC_NAME>
tellanylidenelead

> <PUBCHEM_IUPAC_SYSTEMATIC_NAME>
tellanylidenelead

> <PUBCHEM_IUPAC_TRADITIONAL_NAME>
telluroxolead

> <PUBCHEM_IUPAC_INCHI>
InChI=1S/Pb.Te

> <PUBCHEM_IUPAC_INCHIKEY>
OCGWQDWYSQAFTO-UHFFFAOYSA-N

> <PUBCHEM_EXACT_MASS>
337.88287

> <PUBCHEM_MOLECULAR_FORMULA>
PbTe

> <PUBCHEM_MOLECULAR_WEIGHT>
335

> <PUBCHEM_SMILES>
[Te]=[Pb]

> <PUBCHEM_CONNECTIVITY_SMILES>
[Te]=[Pb]

> <PUBCHEM_CACTVS_TPSA>
0

> <PUBCHEM_MONOISOTOPIC_WEIGHT>
337.88287

> <PUBCHEM_TOTAL_CHARGE>
0

> <PUBCHEM_HEAVY_ATOM_COUNT>
2

> <PUBCHEM_ATOM_DEF_STEREO_COUNT>
0

> <PUBCHEM_ATOM_UDEF_STEREO_COUNT>
0

> <PUBCHEM_BOND_DEF_STEREO_COUNT>
0

> <PUBCHEM_BOND_UDEF_STEREO_COUNT>
0

> <PUBCHEM_ISOTOPIC_ATOM_COUNT>
0

> <PUBCHEM_COMPONENT_COUNT>
1

> <PUBCHEM_CACTVS_TAUTO_COUNT>
-1

> <PUBCHEM_COORDINATE_TYPE>
1
5
255

$$$$
