16685188
  -OEChem-08152606252D

  7  8  0     0  0  0  0  0  0999 V2000
    2.7071    0.0000    0.0000 Pb  0  0  0  0  0  0  0  0  0  0  0  0
    2.7071   -1.4142    0.0000 Pb  0  0  0  0  0  0  0  0  0  0  0  0
    2.7071    1.4142    0.0000 Pb  0  0  0  0  0  0  0  0  0  0  0  0
    3.4142   -0.7071    0.0000 O   0  0  0  0  0  0  0  0  0  0  0  0
    2.0000   -0.7071    0.0000 O   0  0  0  0  0  0  0  0  0  0  0  0
    2.0000    0.7071    0.0000 O   0  0  0  0  0  0  0  0  0  0  0  0
    3.4142    0.7071    0.0000 O   0  0  0  0  0  0  0  0  0  0  0  0
  1  4  1  0  0  0  0
  1  5  1  0  0  0  0
  1  6  1  0  0  0  0
  1  7  1  0  0  0  0
  2  4  1  0  0  0  0
  2  5  1  0  0  0  0
  3  6  1  0  0  0  0
  3  7  1  0  0  0  0
M  END
> <PUBCHEM_COMPOUND_CID>
16685188

> <PUBCHEM_COMPOUND_CANONICALIZED>
1

> <PUBCHEM_CACTVS_COMPLEXITY>
67.4

> <PUBCHEM_CACTVS_HBOND_ACCEPTOR>
4

> <PUBCHEM_CACTVS_HBOND_DONOR>
0

> <PUBCHEM_CACTVS_ROTATABLE_BOND>
0

> <PUBCHEM_CACTVS_SUBSKEYS>
AAADcQAAOAAAAAAAAAAAAEAAAABIkAAAAAAAAAAAAAAAAAAAAAAAAAAAAAAAAAAAAAAAAAAAAAAAAAAAAAAAAAAAAAAAAAAAAAAAAAAAAAAAAAAAAAAAAAAAAAAAAAAAAAAAAAAAAAAAAAAAAAAAAAAAAA==

> <PUBCHEM_IUPAC_OPENEYE_NAME>
1,3,5,7-tetraoxa-2lambda2,4,6lambda2-triplumbaspiro[3.3]heptane

> <PUBCHEM_IUPAC_CAS_NAME>
1,3,5,7-tetraoxa-2lambda2,4,6lambda2-triplumbaspiro[3.3]heptane

> <PUBCHEM_IUPAC_NAME_MARKUP>
1,3,5,7-tetraoxa-2&lambda;<SUP>2</SUP>,4,6&lambda;<SUP>2</SUP>-triplumbaspiro[3.3]heptane

> <PUBCHEM_IUPAC_NAME>
1,3,5,7-tetraoxa-2lambda2,4,6lambda2-triplumbaspiro[3.3]heptane

> <PUBCHEM_IUPAC_SYSTEMATIC_NAME>
1,3,5,7-tetraoxa-2lambda2,4,6lambda2-triplumbaspiro[3.3]heptane

> <PUBCHEM_IUPAC_TRADITIONAL_NAME>
1,3,5,7-tetraoxa-2lambda2,4,6lambda2-triplumbaspiro[3.3]heptane

> <PUBCHEM_IUPAC_INCHI>
InChI=1S/4O.3Pb

> <PUBCHEM_IUPAC_INCHIKEY>
XMFOQHDPRMAJNU-UHFFFAOYSA-N

> <PUBCHEM_EXACT_MASS>
685.90743

> <PUBCHEM_MOLECULAR_FORMULA>
O4Pb3

> <PUBCHEM_MOLECULAR_WEIGHT>
6.9e+02

> <PUBCHEM_SMILES>
O1[Pb]O[Pb]12O[Pb]O2

> <PUBCHEM_CONNECTIVITY_SMILES>
O1[Pb]O[Pb]12O[Pb]O2

> <PUBCHEM_CACTVS_TPSA>
36.9

> <PUBCHEM_MONOISOTOPIC_WEIGHT>
687.90961

> <PUBCHEM_TOTAL_CHARGE>
0

> <PUBCHEM_HEAVY_ATOM_COUNT>
7

> <PUBCHEM_ATOM_DEF_STEREO_COUNT>
0

> <PUBCHEM_ATOM_UDEF_STEREO_COUNT>
0

> <PUBCHEM_BOND_DEF_STEREO_COUNT>
0

> <PUBCHEM_BOND_UDEF_STEREO_COUNT>
0

> <PUBCHEM_ISOTOPIC_ATOM_COUNT>
0

> <PUBCHEM_COMPONENT_COUNT>
1

> <PUBCHEM_CACTVS_TAUTO_COUNT>
-1

> <PUBCHEM_COORDINATE_TYPE>
1
5
255

$$$$
