61550
  -OEChem-08152605182D

  2  1  0     0  0  0  0  0  0999 V2000
    3.0000    0.0000    0.0000 Pb  0  0  0  0  0  0  0  0  0  0  0  0
    2.0000    0.0000    0.0000 Se  0  0  0  0  0  0  0  0  0  0  0  0
  1  2  2  0  0  0  0
M  END
> <PUBCHEM_COMPOUND_CID>
61550

> <PUBCHEM_COMPOUND_CANONICALIZED>
1

> <PUBCHEM_CACTVS_COMPLEXITY>
2

> <PUBCHEM_CACTVS_HBOND_ACCEPTOR>
0

> <PUBCHEM_CACTVS_HBOND_DONOR>
0

> <PUBCHEM_CACTVS_ROTATABLE_BOND>
0

> <PUBCHEM_CACTVS_SUBSKEYS>
AAADcQAAAAAAAAAAIAAAAEAAAAAAAAAAAAAAAAAAAAAAAAAAAAAAAAAAAAAAAAAAAAAAAAAAAAAAAAAAAAAAAAAAAAAAAAAAAAAAAAAAAAAAAAAAAAAAAAAAAAAAAAAAAAAAAAAAAAAAAAAAAAAAAAAAAA==

> <PUBCHEM_IUPAC_OPENEYE_NAME>
selenoxolead

> <PUBCHEM_IUPAC_CAS_NAME>
selanylidenelead

> <PUBCHEM_IUPAC_NAME_MARKUP>
selanylidenelead

> <PUBCHEM_IUPAC_NAME>
selanylidenelead

> <PUBCHEM_IUPAC_SYSTEMATIC_NAME>
selanylidenelead

> <PUBCHEM_IUPAC_TRADITIONAL_NAME>
selenoxolead

> <PUBCHEM_IUPAC_INCHI>
InChI=1S/Pb.Se

> <PUBCHEM_IUPAC_INCHIKEY>
GGYFMLJDMAMTAB-UHFFFAOYSA-N

> <PUBCHEM_EXACT_MASS>
287.89317

> <PUBCHEM_MOLECULAR_FORMULA>
PbSe

> <PUBCHEM_MOLECULAR_WEIGHT>
286

> <PUBCHEM_SMILES>
[Se]=[Pb]

> <PUBCHEM_CONNECTIVITY_SMILES>
[Se]=[Pb]

> <PUBCHEM_CACTVS_TPSA>
0

> <PUBCHEM_MONOISOTOPIC_WEIGHT>
287.89317

> <PUBCHEM_TOTAL_CHARGE>
0

> <PUBCHEM_HEAVY_ATOM_COUNT>
2

> <PUBCHEM_ATOM_DEF_STEREO_COUNT>
0

> <PUBCHEM_ATOM_UDEF_STEREO_COUNT>
0

> <PUBCHEM_BOND_DEF_STEREO_COUNT>
0

> <PUBCHEM_BOND_UDEF_STEREO_COUNT>
0

> <PUBCHEM_ISOTOPIC_ATOM_COUNT>
0

> <PUBCHEM_COMPONENT_COUNT>
1

> <PUBCHEM_CACTVS_TAUTO_COUNT>
-1

> <PUBCHEM_COORDINATE_TYPE>
1
5
255

$$$$
