14827
  -OEChem-08152606182D

  2  1  0     0  0  0  0  0  0999 V2000
    3.0000    0.0000    0.0000 Pb  0  0  0  0  0  0  0  0  0  0  0  0
    2.0000    0.0000    0.0000 O   0  0  0  0  0  0  0  0  0  0  0  0
  1  2  2  0  0  0  0
M  END
> <PUBCHEM_COMPOUND_CID>
14827

> <PUBCHEM_COMPOUND_CANONICALIZED>
1

> <PUBCHEM_CACTVS_COMPLEXITY>
2

> <PUBCHEM_CACTVS_HBOND_ACCEPTOR>
1

> <PUBCHEM_CACTVS_HBOND_DONOR>
0

> <PUBCHEM_CACTVS_ROTATABLE_BOND>
0

> <PUBCHEM_CACTVS_SUBSKEYS>
AAADcQAAIAAAAAAAAAAAAEAAAAAAAAAAAAAAAAAAAAAAAAAAAAAAAAAAAAAAAAAAAAAAAAAAAAAAAAAAAAAAAAAAAAAAAAAAAAAAAAAAAAAAAAAAAAAAAAAAAAAAAAAAAAAAAAAAAAAAAAAAAAAAAAAAAA==

> <PUBCHEM_IUPAC_OPENEYE_NAME>
oxolead

> <PUBCHEM_IUPAC_CAS_NAME>
oxolead

> <PUBCHEM_IUPAC_NAME_MARKUP>
oxolead

> <PUBCHEM_IUPAC_NAME>
oxolead

> <PUBCHEM_IUPAC_SYSTEMATIC_NAME>
oxidanylidenelead

> <PUBCHEM_IUPAC_TRADITIONAL_NAME>
ketolead

> <PUBCHEM_IUPAC_INCHI>
InChI=1S/O.Pb

> <PUBCHEM_IUPAC_INCHIKEY>
YEXPOXQUZXUXJW-UHFFFAOYSA-N

> <PUBCHEM_EXACT_MASS>
223.97157

> <PUBCHEM_MOLECULAR_FORMULA>
OPb

> <PUBCHEM_MOLECULAR_WEIGHT>
223

> <PUBCHEM_SMILES>
O=[Pb]

> <PUBCHEM_CONNECTIVITY_SMILES>
O=[Pb]

> <PUBCHEM_CACTVS_TPSA>
17.1

> <PUBCHEM_MONOISOTOPIC_WEIGHT>
223.97157

> <PUBCHEM_TOTAL_CHARGE>
0

> <PUBCHEM_HEAVY_ATOM_COUNT>
2

> <PUBCHEM_ATOM_DEF_STEREO_COUNT>
0

> <PUBCHEM_ATOM_UDEF_STEREO_COUNT>
0

> <PUBCHEM_BOND_DEF_STEREO_COUNT>
0

> <PUBCHEM_BOND_UDEF_STEREO_COUNT>
0

> <PUBCHEM_ISOTOPIC_ATOM_COUNT>
0

> <PUBCHEM_COMPONENT_COUNT>
1

> <PUBCHEM_CACTVS_TAUTO_COUNT>
-1

> <PUBCHEM_COORDINATE_TYPE>
1
5
255

$$$$
