9794739
  -OEChem-08152607272D

  2  0  0     0  0  0  0  0  0999 V2000
    2.0000    0.0000    0.0000 Pb  0  2  0  0  0  0  0  0  0  0  0  0
    3.0000    0.0000    0.0000 S   0  6  0  0  0  0  0  0  0  0  0  0
M  CHG  2   1   2   2  -2
M  END
> <PUBCHEM_COMPOUND_CID>
9794739

> <PUBCHEM_COMPOUND_CANONICALIZED>
1

> <PUBCHEM_CACTVS_COMPLEXITY>
0

> <PUBCHEM_CACTVS_HBOND_ACCEPTOR>
1

> <PUBCHEM_CACTVS_HBOND_DONOR>
0

> <PUBCHEM_CACTVS_ROTATABLE_BOND>
0

> <PUBCHEM_CACTVS_SUBSKEYS>
AAADcQAAAABAAAAAAAAAAEAAAAAAAAAAAAAAAAAAAAAAAAAAAAAAAAAAAAAAAAAAAAAAAAAAAAAAAAAAAAAAAAAAAAAAAAAAAAAAAAAAAAAAAAAAAAAAAAAAAAAAAAAAAAAAAAAAAAAAAAAAAAAAAAAAAA==

> <PUBCHEM_IUPAC_OPENEYE_NAME>
plumbous sulfide

> <PUBCHEM_IUPAC_CAS_NAME>
lead(2+) sulfide

> <PUBCHEM_IUPAC_NAME_MARKUP>
lead(2+) sulfide

> <PUBCHEM_IUPAC_NAME>
lead(2+) sulfide

> <PUBCHEM_IUPAC_SYSTEMATIC_NAME>
lead(2+) sulfide

> <PUBCHEM_IUPAC_TRADITIONAL_NAME>
plumbous sulfide

> <PUBCHEM_IUPAC_INCHI>
InChI=1S/Pb.S/q+2;-2

> <PUBCHEM_IUPAC_INCHIKEY>
FILXVLQXZYXBSJ-UHFFFAOYSA-N

> <PUBCHEM_EXACT_MASS>
239.94872

> <PUBCHEM_MOLECULAR_FORMULA>
PbS

> <PUBCHEM_MOLECULAR_WEIGHT>
239

> <PUBCHEM_SMILES>
[S-2].[Pb+2]

> <PUBCHEM_CONNECTIVITY_SMILES>
[S-2].[Pb+2]

> <PUBCHEM_CACTVS_TPSA>
1

> <PUBCHEM_MONOISOTOPIC_WEIGHT>
239.94872

> <PUBCHEM_TOTAL_CHARGE>
0

> <PUBCHEM_HEAVY_ATOM_COUNT>
2

> <PUBCHEM_ATOM_DEF_STEREO_COUNT>
0

> <PUBCHEM_ATOM_UDEF_STEREO_COUNT>
0

> <PUBCHEM_BOND_DEF_STEREO_COUNT>
0

> <PUBCHEM_BOND_UDEF_STEREO_COUNT>
0

> <PUBCHEM_ISOTOPIC_ATOM_COUNT>
0

> <PUBCHEM_COMPONENT_COUNT>
2

> <PUBCHEM_CACTVS_TAUTO_COUNT>
-1

> <PUBCHEM_COORDINATE_TYPE>
1
5
255

$$$$
