166014
  -OEChem-08152606062D

  5  0  0     0  0  0  0  0  0999 V2000
    4.5981    0.2500    0.0000 Pb  0  2  0  0  0  0  0  0  0  0  0  0
    2.8660    0.2500    0.0000 Sn  0  0  0  0  0  0  0  0  0  0  0  0
    3.7321    0.7500    0.0000 O   0  6  0  0  0  0  0  0  0  0  0  0
    2.0000    0.7500    0.0000 O   0  6  0  0  0  0  0  0  0  0  0  0
    2.8660   -0.7500    0.0000 O   0  6  0  0  0  0  0  0  0  0  0  0
M  CHG  5   1   2   2   4   3  -2   4  -2   5  -2
M  END
> <PUBCHEM_COMPOUND_CID>
166014

> <PUBCHEM_COMPOUND_CANONICALIZED>
1

> <PUBCHEM_CACTVS_COMPLEXITY>
0

> <PUBCHEM_CACTVS_HBOND_ACCEPTOR>
3

> <PUBCHEM_CACTVS_HBOND_DONOR>
0

> <PUBCHEM_CACTVS_ROTATABLE_BOND>
0

> <PUBCHEM_CACTVS_SUBSKEYS>
AAADcQAAMAAAAAAAAACAAEAAAAAAAAAAAAAAAAAAAAAAAAAAAAAAAAAAAAAAAAAAAAAAAAAAAAAAAAAAAAAAAAAAAAAAAAAAAAAAAAAAAAAAAAAAAAAAAAAAAAAAAAAAAAAAAAAAAAAAAAAAAAAAAAAAAA==

> <PUBCHEM_IUPAC_OPENEYE_NAME>
plumbous;stannic;tris(oxygen(2-))

> <PUBCHEM_IUPAC_CAS_NAME>
lead(2+);tris(oxygen(2-));tin(4+)

> <PUBCHEM_IUPAC_NAME_MARKUP>
lead(2+);tris(oxygen(2-));tin(4+)

> <PUBCHEM_IUPAC_NAME>
lead(2+);tris(oxygen(2-));tin(4+)

> <PUBCHEM_IUPAC_SYSTEMATIC_NAME>
lead(2+);tris(oxygen(2-));tin(4+)

> <PUBCHEM_IUPAC_TRADITIONAL_NAME>
plumbous;stannic;tris(oxygen(2-))

> <PUBCHEM_IUPAC_INCHI>
InChI=1S/3O.Pb.Sn/q3*-2;+2;+4

> <PUBCHEM_IUPAC_INCHIKEY>
MLOKPANHZRKTMG-UHFFFAOYSA-N

> <PUBCHEM_EXACT_MASS>
375.86360

> <PUBCHEM_MOLECULAR_FORMULA>
O3PbSn

> <PUBCHEM_MOLECULAR_WEIGHT>
374

> <PUBCHEM_SMILES>
[O-2].[O-2].[O-2].[Sn+4].[Pb+2]

> <PUBCHEM_CONNECTIVITY_SMILES>
[O-2].[O-2].[O-2].[Sn+4].[Pb+2]

> <PUBCHEM_CACTVS_TPSA>
3

> <PUBCHEM_MONOISOTOPIC_WEIGHT>
375.86360

> <PUBCHEM_TOTAL_CHARGE>
0

> <PUBCHEM_HEAVY_ATOM_COUNT>
5

> <PUBCHEM_ATOM_DEF_STEREO_COUNT>
0

> <PUBCHEM_ATOM_UDEF_STEREO_COUNT>
0

> <PUBCHEM_BOND_DEF_STEREO_COUNT>
0

> <PUBCHEM_BOND_UDEF_STEREO_COUNT>
0

> <PUBCHEM_ISOTOPIC_ATOM_COUNT>
0

> <PUBCHEM_COMPONENT_COUNT>
5

> <PUBCHEM_CACTVS_TAUTO_COUNT>
-1

> <PUBCHEM_COORDINATE_TYPE>
1
5
255

$$$$
