23709765
  -OEChem-08152606052D

  6  4  0     0  0  0  0  0  0999 V2000
    2.7071    0.0000    0.0000 Mn  0  0  0  0  0  0  0  0  0  0  0  0
    3.4142    0.7071    0.0000 O   0  5  0  0  0  0  0  0  0  0  0  0
    2.0000   -0.7071    0.0000 O   0  0  0  0  0  0  0  0  0  0  0  0
    3.4142   -0.7071    0.0000 O   0  0  0  0  0  0  0  0  0  0  0  0
    2.0000    0.7071    0.0000 O   0  0  0  0  0  0  0  0  0  0  0  0
    4.3801    0.4483    0.0000 Li  0  3  0  0  0  0  0  0  0  0  0  0
  1  2  1  6  0  0  0
  1  3  2  1  0  0  0
  1  4  2  1  0  0  0
  1  5  2  6  0  0  0
M  CHG  2   2  -1   6   1
M  END
> <PUBCHEM_COMPOUND_CID>
23709765

> <PUBCHEM_COMPOUND_CANONICALIZED>
1

> <PUBCHEM_CACTVS_COMPLEXITY>
118

> <PUBCHEM_CACTVS_HBOND_ACCEPTOR>
4

> <PUBCHEM_CACTVS_HBOND_DONOR>
0

> <PUBCHEM_CACTVS_ROTATABLE_BOND>
0

> <PUBCHEM_CACTVS_SUBSKEYS>
AAADcQgAOAAAAABAAAAAAAAAAAAAAAAAAAAAAAAAAAAAAAAAAAAAAAAAAAAAAAAAAAAAAAAAAAAAAAAAAAAAAAAAAAAAAAAAAAAAAAAAAAAAAAAAAAAAAAAAAAAAAAAAAAAAAAAAAAAAAAAAAAAAAAAAAA==

> <PUBCHEM_IUPAC_OPENEYE_NAME>
lithium permanganate

> <PUBCHEM_IUPAC_CAS_NAME>
lithium permanganate

> <PUBCHEM_IUPAC_NAME_MARKUP>
lithium permanganate

> <PUBCHEM_IUPAC_NAME>
lithium permanganate

> <PUBCHEM_IUPAC_SYSTEMATIC_NAME>
lithium permanganate

> <PUBCHEM_IUPAC_TRADITIONAL_NAME>
lithium permanganate

> <PUBCHEM_IUPAC_INCHI>
InChI=1S/Li.Mn.4O/q+1;;;;;-1

> <PUBCHEM_IUPAC_INCHIKEY>
MOAIUDFKHZGSPK-UHFFFAOYSA-N

> <PUBCHEM_EXACT_MASS>
125.933705

> <PUBCHEM_MOLECULAR_FORMULA>
LiMnO4

> <PUBCHEM_MOLECULAR_WEIGHT>
125.9

> <PUBCHEM_SMILES>
[Li+].[O-][Mn](=O)(=O)=O

> <PUBCHEM_CONNECTIVITY_SMILES>
[Li+].[O-][Mn](=O)(=O)=O

> <PUBCHEM_CACTVS_TPSA>
74.3

> <PUBCHEM_MONOISOTOPIC_WEIGHT>
125.933705

> <PUBCHEM_TOTAL_CHARGE>
0

> <PUBCHEM_HEAVY_ATOM_COUNT>
6

> <PUBCHEM_ATOM_DEF_STEREO_COUNT>
0

> <PUBCHEM_ATOM_UDEF_STEREO_COUNT>
0

> <PUBCHEM_BOND_DEF_STEREO_COUNT>
0

> <PUBCHEM_BOND_UDEF_STEREO_COUNT>
0

> <PUBCHEM_ISOTOPIC_ATOM_COUNT>
0

> <PUBCHEM_COMPONENT_COUNT>
2

> <PUBCHEM_CACTVS_TAUTO_COUNT>
-1

> <PUBCHEM_NONSTANDARDBOND>
2  6  7

> <PUBCHEM_COORDINATE_TYPE>
1
5
255

> <PUBCHEM_BONDANNOTATIONS>
1  2  6
1  3  5
1  4  5
1  5  6

$$$$
