520242
  -OEChem-08152604322D

  6  2  0     0  0  0  0  0  0999 V2000
    2.9945    0.1535    0.0000 N   0  5  0  0  0  0  0  0  0  0  0  0
    3.8606    0.6535    0.0000 Li  0  3  0  0  0  0  0  0  0  0  0  0
    2.0000    0.2581    0.0000 Li  0  3  0  0  0  0  0  0  0  0  0  0
    2.5878   -0.7600    0.0000 Li  0  3  0  0  0  0  0  0  0  0  0  0
    2.8656    0.7600    0.0000 H   0  0  0  0  0  0  0  0  0  0  0  0
    3.4553   -0.2613    0.0000 H   0  0  0  0  0  0  0  0  0  0  0  0
  1  5  1  0  0  0  0
  1  6  1  0  0  0  0
M  CHG  4   1  -1   2   1   3   1   4   1
M  END
> <PUBCHEM_COMPOUND_CID>
520242

> <PUBCHEM_COMPOUND_CANONICALIZED>
1

> <PUBCHEM_CACTVS_COMPLEXITY>
3.2

> <PUBCHEM_CACTVS_HBOND_ACCEPTOR>
1

> <PUBCHEM_CACTVS_HBOND_DONOR>
1

> <PUBCHEM_CACTVS_ROTATABLE_BOND>
0

> <PUBCHEM_CACTVS_SUBSKEYS>
AAADcQwCAAAAAAAAAAAAAAAAAAAAAAAAAAAAAAAAAAAAAAAAAAAAAAAQAAAAAAAAAAAAAAAAAAAAAAAAAAAAAAAAAAAAAAAAAAAAAAAAAAAAAAAAAAAAAAAAAAAAAAAAAAAAAAAAAAAAAAAAAAAAAAAAAA==

> <PUBCHEM_IUPAC_OPENEYE_NAME>
trilithium;azanide

> <PUBCHEM_IUPAC_CAS_NAME>
trilithium;azanide

> <PUBCHEM_IUPAC_NAME_MARKUP>
trilithium;azanide

> <PUBCHEM_IUPAC_NAME>
trilithium;azanide

> <PUBCHEM_IUPAC_SYSTEMATIC_NAME>
trilithium;azanide

> <PUBCHEM_IUPAC_TRADITIONAL_NAME>
trilithium;azanide

> <PUBCHEM_IUPAC_INCHI>
InChI=1S/3Li.H2N/h;;;1H2/q3*+1;-1

> <PUBCHEM_IUPAC_INCHIKEY>
BHZCMUVGYXEBMY-UHFFFAOYSA-N

> <PUBCHEM_EXACT_MASS>
37.0667344

> <PUBCHEM_MOLECULAR_FORMULA>
H2Li3N+2

> <PUBCHEM_MOLECULAR_WEIGHT>
36.9

> <PUBCHEM_SMILES>
[Li+].[Li+].[Li+].[NH2-]

> <PUBCHEM_CONNECTIVITY_SMILES>
[Li+].[Li+].[Li+].[NH2-]

> <PUBCHEM_CACTVS_TPSA>
1

> <PUBCHEM_MONOISOTOPIC_WEIGHT>
37.0667344

> <PUBCHEM_TOTAL_CHARGE>
2

> <PUBCHEM_HEAVY_ATOM_COUNT>
4

> <PUBCHEM_ATOM_DEF_STEREO_COUNT>
0

> <PUBCHEM_ATOM_UDEF_STEREO_COUNT>
0

> <PUBCHEM_BOND_DEF_STEREO_COUNT>
0

> <PUBCHEM_BOND_UDEF_STEREO_COUNT>
0

> <PUBCHEM_ISOTOPIC_ATOM_COUNT>
0

> <PUBCHEM_COMPONENT_COUNT>
4

> <PUBCHEM_CACTVS_TAUTO_COUNT>
-1

> <PUBCHEM_NONSTANDARDBOND>
1  2  7
1  3  7
1  4  7

> <PUBCHEM_COORDINATE_TYPE>
1
5
255

$$$$
