66320
  -OEChem-08152606492D

  7  4  0     0  0  0  0  0  0999 V2000
    3.7321    0.0000    0.0000 S   0  0  0  0  0  0  0  0  0  0  0  0
    4.5981    0.5000    0.0000 O   0  5  0  0  0  0  0  0  0  0  0  0
    2.8660   -0.5000    0.0000 O   0  5  0  0  0  0  0  0  0  0  0  0
    3.2321    0.8660    0.0000 O   0  0  0  0  0  0  0  0  0  0  0  0
    4.2321   -0.8660    0.0000 O   0  0  0  0  0  0  0  0  0  0  0  0
    5.4641    0.0000    0.0000 Li  0  3  0  0  0  0  0  0  0  0  0  0
    2.0000   -0.0000    0.0000 Li  0  3  0  0  0  0  0  0  0  0  0  0
  1  2  1  0  0  0  0
  1  3  1  0  0  0  0
  1  4  2  0  0  0  0
  1  5  2  0  0  0  0
M  CHG  4   2  -1   3  -1   6   1   7   1
M  END
> <PUBCHEM_COMPOUND_CID>
66320

> <PUBCHEM_COMPOUND_CANONICALIZED>
1

> <PUBCHEM_CACTVS_COMPLEXITY>
62.2

> <PUBCHEM_CACTVS_HBOND_ACCEPTOR>
4

> <PUBCHEM_CACTVS_HBOND_DONOR>
0

> <PUBCHEM_CACTVS_ROTATABLE_BOND>
0

> <PUBCHEM_CACTVS_SUBSKEYS>
AAADcQwAOABAAAAAAAAAAAAAAAAAAAAAAAAAAAAAAAAAAAAAAAAAAAAAAAAAAAAAAAAAAAAAAAAAAAAAADAAAAAAAAAAAAAAAAAAAAAAAAAAAAAAAAAAAAAAAAAAAAAAAAAAAAAAAAAAAAAAAAAAAAAAAA==

> <PUBCHEM_IUPAC_OPENEYE_NAME>
dilithium;sulfate

> <PUBCHEM_IUPAC_CAS_NAME>
dilithium;sulfate

> <PUBCHEM_IUPAC_NAME_MARKUP>
dilithium;sulfate

> <PUBCHEM_IUPAC_NAME>
dilithium;sulfate

> <PUBCHEM_IUPAC_SYSTEMATIC_NAME>
dilithium;sulfate

> <PUBCHEM_IUPAC_TRADITIONAL_NAME>
dilithium;sulfate

> <PUBCHEM_IUPAC_INCHI>
InChI=1S/2Li.H2O4S/c;;1-5(2,3)4/h;;(H2,1,2,3,4)/q2*+1;/p-2

> <PUBCHEM_IUPAC_INCHIKEY>
INHCSSUBVCNVSK-UHFFFAOYSA-L

> <PUBCHEM_EXACT_MASS>
109.98373652

> <PUBCHEM_MOLECULAR_FORMULA>
Li2O4S

> <PUBCHEM_MOLECULAR_WEIGHT>
110.0

> <PUBCHEM_SMILES>
[Li+].[Li+].[O-]S(=O)(=O)[O-]

> <PUBCHEM_CONNECTIVITY_SMILES>
[Li+].[Li+].[O-]S(=O)(=O)[O-]

> <PUBCHEM_CACTVS_TPSA>
88.6

> <PUBCHEM_MONOISOTOPIC_WEIGHT>
109.98373652

> <PUBCHEM_TOTAL_CHARGE>
0

> <PUBCHEM_HEAVY_ATOM_COUNT>
7

> <PUBCHEM_ATOM_DEF_STEREO_COUNT>
0

> <PUBCHEM_ATOM_UDEF_STEREO_COUNT>
0

> <PUBCHEM_BOND_DEF_STEREO_COUNT>
0

> <PUBCHEM_BOND_UDEF_STEREO_COUNT>
0

> <PUBCHEM_ISOTOPIC_ATOM_COUNT>
0

> <PUBCHEM_COMPONENT_COUNT>
3

> <PUBCHEM_CACTVS_TAUTO_COUNT>
-1

> <PUBCHEM_COORDINATE_TYPE>
1
5
255

$$$$
