166630
  -OEChem-08152604532D

  3  0  0     0  0  0  0  0  0999 V2000
    2.8660   -0.2500    0.0000 O   0  6  0  0  0  0  0  0  0  0  0  0
    3.7321    0.2500    0.0000 Li  0  3  0  0  0  0  0  0  0  0  0  0
    2.0000    0.2500    0.0000 Li  0  3  0  0  0  0  0  0  0  0  0  0
M  CHG  3   1  -2   2   1   3   1
M  END
> <PUBCHEM_COMPOUND_CID>
166630

> <PUBCHEM_COMPOUND_CANONICALIZED>
1

> <PUBCHEM_CACTVS_COMPLEXITY>
0

> <PUBCHEM_CACTVS_HBOND_ACCEPTOR>
1

> <PUBCHEM_CACTVS_HBOND_DONOR>
0

> <PUBCHEM_CACTVS_ROTATABLE_BOND>
0

> <PUBCHEM_CACTVS_SUBSKEYS>
AAADcQwAIAAAAAAAAAAAAAAAAAAAAAAAAAAAAAAAAAAAAAAAAAAAAAAAAAAAAAAAAAAAAAAAAAAAAAAAAAAAAAAAAAAAAAAAAAAAAAAAAAAAAAAAAAAAAAAAAAAAAAAAAAAAAAAAAAAAAAAAAAAAAAAAAA==

> <PUBCHEM_IUPAC_OPENEYE_NAME>
dilithium;oxygen(2-)

> <PUBCHEM_IUPAC_CAS_NAME>
dilithium;oxygen(2-)

> <PUBCHEM_IUPAC_NAME_MARKUP>
dilithium;oxygen(2-)

> <PUBCHEM_IUPAC_NAME>
dilithium;oxygen(2-)

> <PUBCHEM_IUPAC_SYSTEMATIC_NAME>
dilithium;oxygen(2-)

> <PUBCHEM_IUPAC_TRADITIONAL_NAME>
dilithium;oxygen(2-)

> <PUBCHEM_IUPAC_INCHI>
InChI=1S/2Li.O/q2*+1;-2

> <PUBCHEM_IUPAC_INCHIKEY>
FUJCRWPEOMXPAD-UHFFFAOYSA-N

> <PUBCHEM_EXACT_MASS>
30.02692149

> <PUBCHEM_MOLECULAR_FORMULA>
Li2O

> <PUBCHEM_MOLECULAR_WEIGHT>
29.9

> <PUBCHEM_SMILES>
[Li+].[Li+].[O-2]

> <PUBCHEM_CONNECTIVITY_SMILES>
[Li+].[Li+].[O-2]

> <PUBCHEM_CACTVS_TPSA>
1

> <PUBCHEM_MONOISOTOPIC_WEIGHT>
30.02692149

> <PUBCHEM_TOTAL_CHARGE>
0

> <PUBCHEM_HEAVY_ATOM_COUNT>
3

> <PUBCHEM_ATOM_DEF_STEREO_COUNT>
0

> <PUBCHEM_ATOM_UDEF_STEREO_COUNT>
0

> <PUBCHEM_BOND_DEF_STEREO_COUNT>
0

> <PUBCHEM_BOND_UDEF_STEREO_COUNT>
0

> <PUBCHEM_ISOTOPIC_ATOM_COUNT>
0

> <PUBCHEM_COMPONENT_COUNT>
3

> <PUBCHEM_CACTVS_TAUTO_COUNT>
-1

> <PUBCHEM_COORDINATE_TYPE>
1
5
255

$$$$
