24532
  -OEChem-08152606462D

  4  2  0     0  0  0  0  0  0999 V2000
    2.5369    0.0600    0.0000 N   0  5  0  0  0  0  0  0  0  0  0  0
    3.4030    0.5600    0.0000 Li  0  3  0  0  0  0  0  0  0  0  0  0
    2.0000    0.3700    0.0000 H   0  0  0  0  0  0  0  0  0  0  0  0
    2.5369   -0.5600    0.0000 H   0  0  0  0  0  0  0  0  0  0  0  0
  1  3  1  0  0  0  0
  1  4  1  0  0  0  0
M  CHG  2   1  -1   2   1
M  END
> <PUBCHEM_COMPOUND_CID>
24532

> <PUBCHEM_COMPOUND_CANONICALIZED>
1

> <PUBCHEM_CACTVS_COMPLEXITY>
2

> <PUBCHEM_CACTVS_HBOND_ACCEPTOR>
1

> <PUBCHEM_CACTVS_HBOND_DONOR>
1

> <PUBCHEM_CACTVS_ROTATABLE_BOND>
0

> <PUBCHEM_CACTVS_SUBSKEYS>
AAADcQgCAAAAAAAAAAAAAAAAAAAAAAAAAAAAAAAAAAAAAAAAAAAAAAAQAAAAAAAAAAAAAAAAAAAAAAAAAAAAAAAAAAAAAAAAAAAAAAAAAAAAAAAAAAAAAAAAAAAAAAAAAAAAAAAAAAAAAAAAAAAAAAAAAA==

> <PUBCHEM_IUPAC_OPENEYE_NAME>
lithium azanide

> <PUBCHEM_IUPAC_CAS_NAME>
lithium azanide

> <PUBCHEM_IUPAC_NAME_MARKUP>
lithium azanide

> <PUBCHEM_IUPAC_NAME>
lithium azanide

> <PUBCHEM_IUPAC_SYSTEMATIC_NAME>
lithium azanide

> <PUBCHEM_IUPAC_TRADITIONAL_NAME>
lithium azanide

> <PUBCHEM_IUPAC_INCHI>
InChI=1S/Li.H2N/h;1H2/q+1;-1

> <PUBCHEM_IUPAC_INCHIKEY>
AFRJJFRNGGLMDW-UHFFFAOYSA-N

> <PUBCHEM_EXACT_MASS>
23.03472750

> <PUBCHEM_MOLECULAR_FORMULA>
H2LiN

> <PUBCHEM_MOLECULAR_WEIGHT>
23.0

> <PUBCHEM_SMILES>
[Li+].[NH2-]

> <PUBCHEM_CONNECTIVITY_SMILES>
[Li+].[NH2-]

> <PUBCHEM_CACTVS_TPSA>
1

> <PUBCHEM_MONOISOTOPIC_WEIGHT>
23.03472750

> <PUBCHEM_TOTAL_CHARGE>
0

> <PUBCHEM_HEAVY_ATOM_COUNT>
2

> <PUBCHEM_ATOM_DEF_STEREO_COUNT>
0

> <PUBCHEM_ATOM_UDEF_STEREO_COUNT>
0

> <PUBCHEM_BOND_DEF_STEREO_COUNT>
0

> <PUBCHEM_BOND_UDEF_STEREO_COUNT>
0

> <PUBCHEM_ISOTOPIC_ATOM_COUNT>
0

> <PUBCHEM_COMPONENT_COUNT>
2

> <PUBCHEM_CACTVS_TAUTO_COUNT>
-1

> <PUBCHEM_NONSTANDARDBOND>
1  2  7

> <PUBCHEM_COORDINATE_TYPE>
1
5
255

$$$$
