15320824
  -OEChem-08152604592D

  7  4  0     0  0  0  0  0  0999 V2000
    2.0000   -1.0000    0.0000 Fe  0  2  0  0  0  0  0  0  0  0  0  0
    3.0000    0.0000    0.0000 P   0  0  0  0  0  0  0  0  0  0  0  0
    2.0000    0.0000    0.0000 O   0  5  0  0  0  0  0  0  0  0  0  0
    3.0000   -1.0000    0.0000 O   0  5  0  0  0  0  0  0  0  0  0  0
    4.0000   -0.0000    0.0000 O   0  5  0  0  0  0  0  0  0  0  0  0
    3.0000    1.0000    0.0000 O   0  0  0  0  0  0  0  0  0  0  0  0
    4.5000    0.8660    0.0000 Li  0  3  0  0  0  0  0  0  0  0  0  0
  2  3  1  0  0  0  0
  2  4  1  0  0  0  0
  2  5  1  0  0  0  0
  2  6  2  0  0  0  0
M  CHG  5   1   2   3  -1   4  -1   5  -1   7   1
M  END
> <PUBCHEM_COMPOUND_CID>
15320824

> <PUBCHEM_COMPOUND_CANONICALIZED>
1

> <PUBCHEM_CACTVS_COMPLEXITY>
36.8

> <PUBCHEM_CACTVS_HBOND_ACCEPTOR>
4

> <PUBCHEM_CACTVS_HBOND_DONOR>
0

> <PUBCHEM_CACTVS_ROTATABLE_BOND>
0

> <PUBCHEM_CACTVS_SUBSKEYS>
AAADcQgAOAIAAAAgAAAAAAAAAAAAAAAAAAAAAAAAAAAAAAAAAAAAAAAAACAAAAAAAAAAAAAAABAAQAAAAIAAAAAAAAAAAAAAAAAAAAAAAAAAAAAAAAAAAAAAAAAAAAAAAAAAAAAAAAAAAAAAAAAAAAAAAA==

> <PUBCHEM_IUPAC_OPENEYE_NAME>
ferrous;lithium;phosphate

> <PUBCHEM_IUPAC_CAS_NAME>
lithium;iron(2+);phosphate

> <PUBCHEM_IUPAC_NAME_MARKUP>
lithium;iron(2+);phosphate

> <PUBCHEM_IUPAC_NAME>
lithium;iron(2+);phosphate

> <PUBCHEM_IUPAC_SYSTEMATIC_NAME>
lithium;iron(2+);phosphate

> <PUBCHEM_IUPAC_TRADITIONAL_NAME>
ferrous;lithium;phosphate

> <PUBCHEM_IUPAC_INCHI>
InChI=1S/Fe.Li.H3O4P/c;;1-5(2,3)4/h;;(H3,1,2,3,4)/q+2;+1;/p-3

> <PUBCHEM_IUPAC_INCHIKEY>
GELKBWJHTRAYNV-UHFFFAOYSA-K

> <PUBCHEM_EXACT_MASS>
157.904359

> <PUBCHEM_MOLECULAR_FORMULA>
FeLiO4P

> <PUBCHEM_MOLECULAR_WEIGHT>
157.8

> <PUBCHEM_SMILES>
[Li+].[O-]P(=O)([O-])[O-].[Fe+2]

> <PUBCHEM_CONNECTIVITY_SMILES>
[Li+].[O-]P(=O)([O-])[O-].[Fe+2]

> <PUBCHEM_CACTVS_TPSA>
86.3

> <PUBCHEM_MONOISOTOPIC_WEIGHT>
157.904359

> <PUBCHEM_TOTAL_CHARGE>
0

> <PUBCHEM_HEAVY_ATOM_COUNT>
7

> <PUBCHEM_ATOM_DEF_STEREO_COUNT>
0

> <PUBCHEM_ATOM_UDEF_STEREO_COUNT>
0

> <PUBCHEM_BOND_DEF_STEREO_COUNT>
0

> <PUBCHEM_BOND_UDEF_STEREO_COUNT>
0

> <PUBCHEM_ISOTOPIC_ATOM_COUNT>
0

> <PUBCHEM_COMPONENT_COUNT>
3

> <PUBCHEM_CACTVS_TAUTO_COUNT>
-1

> <PUBCHEM_COORDINATE_TYPE>
1
5
255

$$$$
