21692051
  -OEChem-08152606482D

  7  4  0     0  0  0  0  0  0999 V2000
    5.4641    0.5000    0.0000 S   0  5  0  0  0  0  0  0  0  0  0  0
    3.7321    0.5000    0.0000 S   0  5  0  0  0  0  0  0  0  0  0  0
    4.5981    0.0000    0.0000 Mg  0  2  0  0  0  0  0  0  0  0  0  0
    7.1962   -0.5000    0.0000 N   0  0  0  0  0  0  0  0  0  0  0  0
    2.0000   -0.5000    0.0000 N   0  0  0  0  0  0  0  0  0  0  0  0
    6.3301    0.0000    0.0000 C   0  0  0  0  0  0  0  0  0  0  0  0
    2.8660   -0.0000    0.0000 C   0  0  0  0  0  0  0  0  0  0  0  0
  1  6  1  0  0  0  0
  2  7  1  0  0  0  0
  4  6  3  0  0  0  0
  5  7  3  0  0  0  0
M  CHG  3   1  -1   2  -1   3   2
M  END
> <PUBCHEM_COMPOUND_CID>
21692051

> <PUBCHEM_COMPOUND_CANONICALIZED>
1

> <PUBCHEM_CACTVS_COMPLEXITY>
31.3

> <PUBCHEM_CACTVS_HBOND_ACCEPTOR>
4

> <PUBCHEM_CACTVS_HBOND_DONOR>
0

> <PUBCHEM_CACTVS_ROTATABLE_BOND>
0

> <PUBCHEM_CACTVS_SUBSKEYS>
AAADcQBDAABgACAAAAAAAAAAAAAAAAAAAAAAAAAAAAAAAAAAAAAABAQAAAAAAAAAAAAAAAAAAAAQAAAAAAAAAAAAAAAAAAAAAAAAAAAAAAAAAAAAAAAAAAAAAAAAAAAAAAAAAAAAAAAAAAAAAAAAAAAAAA==

> <PUBCHEM_IUPAC_OPENEYE_NAME>
magnesium dithiocyanate

> <PUBCHEM_IUPAC_CAS_NAME>
magnesium dithiocyanate

> <PUBCHEM_IUPAC_NAME_MARKUP>
magnesium dithiocyanate

> <PUBCHEM_IUPAC_NAME>
magnesium dithiocyanate

> <PUBCHEM_IUPAC_SYSTEMATIC_NAME>
magnesium dithiocyanate

> <PUBCHEM_IUPAC_TRADITIONAL_NAME>
magnesium dithiocyanate

> <PUBCHEM_IUPAC_INCHI>
InChI=1S/2CHNS.Mg/c2*2-1-3;/h2*3H;/q;;+2/p-2

> <PUBCHEM_IUPAC_INCHIKEY>
SXTGAOTXVOMSFW-UHFFFAOYSA-L

> <PUBCHEM_EXACT_MASS>
139.9353320

> <PUBCHEM_MOLECULAR_FORMULA>
C2MgN2S2

> <PUBCHEM_MOLECULAR_WEIGHT>
140.48

> <PUBCHEM_SMILES>
C(#N)[S-].C(#N)[S-].[Mg+2]

> <PUBCHEM_CONNECTIVITY_SMILES>
C(#N)[S-].C(#N)[S-].[Mg+2]

> <PUBCHEM_CACTVS_TPSA>
49.6

> <PUBCHEM_MONOISOTOPIC_WEIGHT>
139.9353320

> <PUBCHEM_TOTAL_CHARGE>
0

> <PUBCHEM_HEAVY_ATOM_COUNT>
7

> <PUBCHEM_ATOM_DEF_STEREO_COUNT>
0

> <PUBCHEM_ATOM_UDEF_STEREO_COUNT>
0

> <PUBCHEM_BOND_DEF_STEREO_COUNT>
0

> <PUBCHEM_BOND_UDEF_STEREO_COUNT>
0

> <PUBCHEM_ISOTOPIC_ATOM_COUNT>
0

> <PUBCHEM_COMPONENT_COUNT>
3

> <PUBCHEM_CACTVS_TAUTO_COUNT>
-1

> <PUBCHEM_COORDINATE_TYPE>
1
5
255

$$$$
