13710655
  -OEChem-08152604522D

  7  4  0     0  0  0  0  0  0999 V2000
    4.5981   -0.2500    0.0000 Mg  0  2  0  0  0  0  0  0  0  0  0  0
    5.4641    0.2500    0.0000 O   0  5  0  0  0  0  0  0  0  0  0  0
    3.7321    0.2500    0.0000 O   0  5  0  0  0  0  0  0  0  0  0  0
    7.1962    0.2500    0.0000 O   0  0  0  0  0  0  0  0  0  0  0  0
    2.0000    0.2500    0.0000 O   0  0  0  0  0  0  0  0  0  0  0  0
    6.3301   -0.2500    0.0000 B   0  0  0  0  0  0  0  0  0  0  0  0
    2.8660   -0.2500    0.0000 B   0  0  0  0  0  0  0  0  0  0  0  0
  2  6  1  0  0  0  0
  3  7  1  0  0  0  0
  4  6  2  0  0  0  0
  5  7  2  0  0  0  0
M  CHG  3   1   2   2  -1   3  -1
M  END
> <PUBCHEM_COMPOUND_CID>
13710655

> <PUBCHEM_COMPOUND_CANONICALIZED>
1

> <PUBCHEM_CACTVS_COMPLEXITY>
7.5

> <PUBCHEM_CACTVS_HBOND_ACCEPTOR>
4

> <PUBCHEM_CACTVS_HBOND_DONOR>
0

> <PUBCHEM_CACTVS_ROTATABLE_BOND>
0

> <PUBCHEM_CACTVS_SUBSKEYS>
AAADcQMAOAAAACAAAAAAAAAAAAAAAAAAAAAAAAAAAAAAAAAAAAAIAAAAAAAAAAAAAAAAAAAAAAAAAAAAAAAAAAAAAAAAAAAAAAAAAAAAAAAAAAAAAAAAAAAAAAAAAAAAAAAAAAAAAAAAAAAAAAAAAAAAAA==

> <PUBCHEM_IUPAC_OPENEYE_NAME>
magnesium oxido(oxo)borane

> <PUBCHEM_IUPAC_CAS_NAME>
magnesium oxido(oxo)borane

> <PUBCHEM_IUPAC_NAME_MARKUP>
magnesium oxido(oxo)borane

> <PUBCHEM_IUPAC_NAME>
magnesium oxido(oxo)borane

> <PUBCHEM_IUPAC_SYSTEMATIC_NAME>
magnesium oxidanidyl(oxidanylidene)borane

> <PUBCHEM_IUPAC_TRADITIONAL_NAME>
magnesium keto(oxido)borane

> <PUBCHEM_IUPAC_INCHI>
InChI=1S/2BO2.Mg/c2*2-1-3;/q2*-1;+2

> <PUBCHEM_IUPAC_INCHIKEY>
LOCZQLKNTOXJDV-UHFFFAOYSA-N

> <PUBCHEM_EXACT_MASS>
109.9833105

> <PUBCHEM_MOLECULAR_FORMULA>
B2MgO4

> <PUBCHEM_MOLECULAR_WEIGHT>
109.93

> <PUBCHEM_SMILES>
B(=O)[O-].B(=O)[O-].[Mg+2]

> <PUBCHEM_CONNECTIVITY_SMILES>
B(=O)[O-].B(=O)[O-].[Mg+2]

> <PUBCHEM_CACTVS_TPSA>
80.3

> <PUBCHEM_MONOISOTOPIC_WEIGHT>
109.9833105

> <PUBCHEM_TOTAL_CHARGE>
0

> <PUBCHEM_HEAVY_ATOM_COUNT>
7

> <PUBCHEM_ATOM_DEF_STEREO_COUNT>
0

> <PUBCHEM_ATOM_UDEF_STEREO_COUNT>
0

> <PUBCHEM_BOND_DEF_STEREO_COUNT>
0

> <PUBCHEM_BOND_UDEF_STEREO_COUNT>
0

> <PUBCHEM_ISOTOPIC_ATOM_COUNT>
0

> <PUBCHEM_COMPONENT_COUNT>
3

> <PUBCHEM_CACTVS_TAUTO_COUNT>
-1

> <PUBCHEM_COORDINATE_TYPE>
1
5
255

$$$$
