61713
  -OEChem-08152607402D

 10  8  0     0  0  0  0  0  0999 V2000
    3.8660   -0.7500    0.0000 Cr  0  0  0  0  0  0  0  0  0  0  0  0
    3.0000    0.7500    0.0000 Cr  0  0  0  0  0  0  0  0  0  0  0  0
    4.7321    0.7500    0.0000 Mg  0  2  0  0  0  0  0  0  0  0  0  0
    3.0000   -0.2500    0.0000 O   0  0  0  0  0  0  0  0  0  0  0  0
    4.7321   -0.2500    0.0000 O   0  5  0  0  0  0  0  0  0  0  0  0
    3.8660    1.2500    0.0000 O   0  5  0  0  0  0  0  0  0  0  0  0
    4.3660   -1.6160    0.0000 O   0  0  0  0  0  0  0  0  0  0  0  0
    3.3660   -1.6160    0.0000 O   0  0  0  0  0  0  0  0  0  0  0  0
    2.5000    1.6160    0.0000 O   0  0  0  0  0  0  0  0  0  0  0  0
    2.0000    0.7500    0.0000 O   0  0  0  0  0  0  0  0  0  0  0  0
  1  4  1  0  0  0  0
  1  5  1  0  0  0  0
  1  7  2  0  0  0  0
  1  8  2  0  0  0  0
  2  4  1  0  0  0  0
  2  6  1  0  0  0  0
  2  9  2  0  0  0  0
  2 10  2  0  0  0  0
M  CHG  3   3   2   5  -1   6  -1
M  END
> <PUBCHEM_COMPOUND_CID>
61713

> <PUBCHEM_COMPOUND_CANONICALIZED>
1

> <PUBCHEM_CACTVS_COMPLEXITY>
194

> <PUBCHEM_CACTVS_HBOND_ACCEPTOR>
7

> <PUBCHEM_CACTVS_HBOND_DONOR>
0

> <PUBCHEM_CACTVS_ROTATABLE_BOND>
0

> <PUBCHEM_CACTVS_SUBSKEYS>
AAADcQAAOAAAACCAAAAAAAAAAAAAAAAAAAAAAAAAAAAAAAAAAAAAAAAAAAAAAAAAAAAAAAAAAAAAAAAAAAAAAAAAAAAAAAAAAAAAAAAAAAAAAAAAAAAAAAAAAAAAAAAAAAAAAAAAAAAAAAAAAAAAAAAAAA==

> <PUBCHEM_IUPAC_OPENEYE_NAME>
magnesium oxido-(oxido(dioxo)chromio)oxy-dioxo-chromium

> <PUBCHEM_IUPAC_CAS_NAME>
magnesium oxido-(oxido(dioxo)chromio)oxy-dioxochromium

> <PUBCHEM_IUPAC_NAME_MARKUP>
magnesium oxido-(oxido(dioxo)chromio)oxy-dioxochromium

> <PUBCHEM_IUPAC_NAME>
magnesium oxido-(oxido(dioxo)chromio)oxy-dioxochromium

> <PUBCHEM_IUPAC_SYSTEMATIC_NAME>
magnesium oxidanidyl-(oxidanidyl-bis(oxidanylidene)chromio)oxy-bis(oxidanylidene)chromium

> <PUBCHEM_IUPAC_TRADITIONAL_NAME>
magnesium (diketo(oxido)chromio)oxy-diketo-oxido-chromium

> <PUBCHEM_IUPAC_INCHI>
InChI=1S/2Cr.Mg.7O/q;;+2;;;;;;2*-1

> <PUBCHEM_IUPAC_INCHIKEY>
GIOZLVMCHDGNNZ-UHFFFAOYSA-N

> <PUBCHEM_EXACT_MASS>
239.830453

> <PUBCHEM_MOLECULAR_FORMULA>
Cr2MgO7

> <PUBCHEM_MOLECULAR_WEIGHT>
240.29

> <PUBCHEM_SMILES>
[O-][Cr](=O)(=O)O[Cr](=O)(=O)[O-].[Mg+2]

> <PUBCHEM_CONNECTIVITY_SMILES>
[O-][Cr](=O)(=O)O[Cr](=O)(=O)[O-].[Mg+2]

> <PUBCHEM_CACTVS_TPSA>
124

> <PUBCHEM_MONOISOTOPIC_WEIGHT>
239.830453

> <PUBCHEM_TOTAL_CHARGE>
0

> <PUBCHEM_HEAVY_ATOM_COUNT>
10

> <PUBCHEM_ATOM_DEF_STEREO_COUNT>
0

> <PUBCHEM_ATOM_UDEF_STEREO_COUNT>
0

> <PUBCHEM_BOND_DEF_STEREO_COUNT>
0

> <PUBCHEM_BOND_UDEF_STEREO_COUNT>
0

> <PUBCHEM_ISOTOPIC_ATOM_COUNT>
0

> <PUBCHEM_COMPONENT_COUNT>
2

> <PUBCHEM_CACTVS_TAUTO_COUNT>
-1

> <PUBCHEM_COORDINATE_TYPE>
1
5
255

$$$$
