9793766
  -OEChem-08152607142D

  5  2  0     0  0  0  0  0  0999 V2000
    5.4641   -0.2500    0.0000 Cl  0  0  0  0  0  0  0  0  0  0  0  0
    2.0000   -0.2500    0.0000 Cl  0  0  0  0  0  0  0  0  0  0  0  0
    3.7321   -0.2500    0.0000 Mg  0  2  0  0  0  0  0  0  0  0  0  0
    4.5981    0.2500    0.0000 O   0  5  0  0  0  0  0  0  0  0  0  0
    2.8660    0.2500    0.0000 O   0  5  0  0  0  0  0  0  0  0  0  0
  1  4  1  0  0  0  0
  2  5  1  0  0  0  0
M  CHG  3   3   2   4  -1   5  -1
M  END
> <PUBCHEM_COMPOUND_CID>
9793766

> <PUBCHEM_COMPOUND_CANONICALIZED>
1

> <PUBCHEM_CACTVS_COMPLEXITY>
2

> <PUBCHEM_CACTVS_HBOND_ACCEPTOR>
2

> <PUBCHEM_CACTVS_HBOND_DONOR>
0

> <PUBCHEM_CACTVS_ROTATABLE_BOND>
0

> <PUBCHEM_CACTVS_SUBSKEYS>
AAADcQAAMAAGACAAAAAAAAAAAAAAAAAAAAAAAAAAAAAAAAAAAAAAAAAAAAAAAAAAAAAAAAAAAAAAAAAAAAAAAAAAAAAAAAAAAAAAAAAAAAAAAAAAAAAAAAAAAAAAAAAAAAAAAAAAAAAAAAAAAAAAAAAAAA==

> <PUBCHEM_IUPAC_OPENEYE_NAME>
magnesium dihypochlorite

> <PUBCHEM_IUPAC_CAS_NAME>
magnesium dihypochlorite

> <PUBCHEM_IUPAC_NAME_MARKUP>
magnesium dihypochlorite

> <PUBCHEM_IUPAC_NAME>
magnesium dihypochlorite

> <PUBCHEM_IUPAC_SYSTEMATIC_NAME>
magnesium dihypochlorite

> <PUBCHEM_IUPAC_TRADITIONAL_NAME>
magnesium dihypochlorite

> <PUBCHEM_IUPAC_INCHI>
InChI=1S/2ClO.Mg/c2*1-2;/q2*-1;+2

> <PUBCHEM_IUPAC_INCHIKEY>
YZQBYALVHAANGI-UHFFFAOYSA-N

> <PUBCHEM_EXACT_MASS>
125.9125763

> <PUBCHEM_MOLECULAR_FORMULA>
Cl2MgO2

> <PUBCHEM_MOLECULAR_WEIGHT>
127.21

> <PUBCHEM_SMILES>
[O-]Cl.[O-]Cl.[Mg+2]

> <PUBCHEM_CONNECTIVITY_SMILES>
[O-]Cl.[O-]Cl.[Mg+2]

> <PUBCHEM_CACTVS_TPSA>
46.1

> <PUBCHEM_MONOISOTOPIC_WEIGHT>
125.9125763

> <PUBCHEM_TOTAL_CHARGE>
0

> <PUBCHEM_HEAVY_ATOM_COUNT>
5

> <PUBCHEM_ATOM_DEF_STEREO_COUNT>
0

> <PUBCHEM_ATOM_UDEF_STEREO_COUNT>
0

> <PUBCHEM_BOND_DEF_STEREO_COUNT>
0

> <PUBCHEM_BOND_UDEF_STEREO_COUNT>
0

> <PUBCHEM_ISOTOPIC_ATOM_COUNT>
0

> <PUBCHEM_COMPONENT_COUNT>
3

> <PUBCHEM_CACTVS_TAUTO_COUNT>
-1

> <PUBCHEM_COORDINATE_TYPE>
1
5
255

$$$$
