61745
  -OEChem-08152605382D

  3  1  0     0  0  0  0  0  0999 V2000
    3.0000    0.4330    0.0000 Mg  0  2  0  0  0  0  0  0  0  0  0  0
    2.5000   -0.4330    0.0000 O   0  5  0  0  0  0  0  0  0  0  0  0
    2.0000    0.4330    0.0000 O   0  5  0  0  0  0  0  0  0  0  0  0
  2  3  1  0  0  0  0
M  CHG  3   1   2   2  -1   3  -1
M  END
> <PUBCHEM_COMPOUND_CID>
61745

> <PUBCHEM_COMPOUND_CANONICALIZED>
1

> <PUBCHEM_CACTVS_COMPLEXITY>
2.8

> <PUBCHEM_CACTVS_HBOND_ACCEPTOR>
2

> <PUBCHEM_CACTVS_HBOND_DONOR>
0

> <PUBCHEM_CACTVS_ROTATABLE_BOND>
0

> <PUBCHEM_CACTVS_SUBSKEYS>
AAADcQAAMAAAACAAAAAAAAAAEgAAAAAAAAAAAAAAAAAAAAAAAAAAAAAABAAAAAAAAAAAAAAAAAAAAAAAAAAAAAAAAAAAAAAAAAAAAAAAAAAAAAAAAAAAAAAAAAAAAAAAAAAAAAAAAAAAAAAAAAAAAAAAAA==

> <PUBCHEM_IUPAC_OPENEYE_NAME>
magnesium peroxide

> <PUBCHEM_IUPAC_CAS_NAME>
magnesium peroxide

> <PUBCHEM_IUPAC_NAME_MARKUP>
magnesium peroxide

> <PUBCHEM_IUPAC_NAME>
magnesium peroxide

> <PUBCHEM_IUPAC_SYSTEMATIC_NAME>
magnesium peroxide

> <PUBCHEM_IUPAC_TRADITIONAL_NAME>
magnesium peroxide

> <PUBCHEM_IUPAC_INCHI>
InChI=1S/Mg.O2/c;1-2/q+2;-2

> <PUBCHEM_IUPAC_INCHIKEY>
SPAGIJMPHSUYSE-UHFFFAOYSA-N

> <PUBCHEM_EXACT_MASS>
55.9748709

> <PUBCHEM_MOLECULAR_FORMULA>
MgO2

> <PUBCHEM_MOLECULAR_WEIGHT>
56.304

> <PUBCHEM_SMILES>
[O-][O-].[Mg+2]

> <PUBCHEM_CONNECTIVITY_SMILES>
[O-][O-].[Mg+2]

> <PUBCHEM_CACTVS_TPSA>
46.1

> <PUBCHEM_MONOISOTOPIC_WEIGHT>
55.9748709

> <PUBCHEM_TOTAL_CHARGE>
0

> <PUBCHEM_HEAVY_ATOM_COUNT>
3

> <PUBCHEM_ATOM_DEF_STEREO_COUNT>
0

> <PUBCHEM_ATOM_UDEF_STEREO_COUNT>
0

> <PUBCHEM_BOND_DEF_STEREO_COUNT>
0

> <PUBCHEM_BOND_UDEF_STEREO_COUNT>
0

> <PUBCHEM_ISOTOPIC_ATOM_COUNT>
0

> <PUBCHEM_COMPONENT_COUNT>
2

> <PUBCHEM_CACTVS_TAUTO_COUNT>
-1

> <PUBCHEM_NONSTANDARDBOND>
1  2  6
1  3  6

> <PUBCHEM_COORDINATE_TYPE>
1
5
255

$$$$
