3084161
  -OEChem-08152607052D

  6  4  0     0  0  0  0  0  0999 V2000
    3.0000    0.0000    0.0000 W   0  0  0  0  0  0  0  0  0  0  0  0
    2.0000   -1.0000    0.0000 Mg  0  2  0  0  0  0  0  0  0  0  0  0
    2.0000    0.0000    0.0000 O   0  5  0  0  0  0  0  0  0  0  0  0
    3.0000   -1.0000    0.0000 O   0  5  0  0  0  0  0  0  0  0  0  0
    4.0000   -0.0000    0.0000 O   0  0  0  0  0  0  0  0  0  0  0  0
    3.0000    1.0000    0.0000 O   0  0  0  0  0  0  0  0  0  0  0  0
  1  3  1  0  0  0  0
  1  4  1  0  0  0  0
  1  5  2  0  0  0  0
  1  6  2  0  0  0  0
M  CHG  3   2   2   3  -1   4  -1
M  END
> <PUBCHEM_COMPOUND_CID>
3084161

> <PUBCHEM_COMPOUND_CANONICALIZED>
1

> <PUBCHEM_CACTVS_COMPLEXITY>
62.2

> <PUBCHEM_CACTVS_HBOND_ACCEPTOR>
4

> <PUBCHEM_CACTVS_HBOND_DONOR>
0

> <PUBCHEM_CACTVS_ROTATABLE_BOND>
0

> <PUBCHEM_CACTVS_SUBSKEYS>
AAADcQAAOAAAACAAAAAAQAAAAAAAAAAAAAAAAAAAAAAAAAAAAAAAAAAAAAAAAAAAAAAAAAAAAAAAAAAAAAAAAAAAAAAAAAAAAAAAAAAAAAAAAAAAAAAAAAAAAAAAAAAAAAAAAAAAAAAAAAAAAAAAAAAAAA==

> <PUBCHEM_IUPAC_OPENEYE_NAME>
magnesium dioxido(dioxo)tungsten

> <PUBCHEM_IUPAC_CAS_NAME>
magnesium dioxido(dioxo)tungsten

> <PUBCHEM_IUPAC_NAME_MARKUP>
magnesium dioxido(dioxo)tungsten

> <PUBCHEM_IUPAC_NAME>
magnesium dioxido(dioxo)tungsten

> <PUBCHEM_IUPAC_SYSTEMATIC_NAME>
magnesium bis(oxidanidyl)-bis(oxidanylidene)tungsten

> <PUBCHEM_IUPAC_TRADITIONAL_NAME>
magnesium diketo(dioxido)tungsten

> <PUBCHEM_IUPAC_INCHI>
InChI=1S/Mg.4O.W/q+2;;;2*-1;

> <PUBCHEM_IUPAC_INCHIKEY>
DJZHPOJZOWHJPP-UHFFFAOYSA-N

> <PUBCHEM_EXACT_MASS>
271.915633

> <PUBCHEM_MOLECULAR_FORMULA>
MgO4W

> <PUBCHEM_MOLECULAR_WEIGHT>
272.14

> <PUBCHEM_SMILES>
[O-][W](=O)(=O)[O-].[Mg+2]

> <PUBCHEM_CONNECTIVITY_SMILES>
[O-][W](=O)(=O)[O-].[Mg+2]

> <PUBCHEM_CACTVS_TPSA>
80.3

> <PUBCHEM_MONOISOTOPIC_WEIGHT>
271.915633

> <PUBCHEM_TOTAL_CHARGE>
0

> <PUBCHEM_HEAVY_ATOM_COUNT>
6

> <PUBCHEM_ATOM_DEF_STEREO_COUNT>
0

> <PUBCHEM_ATOM_UDEF_STEREO_COUNT>
0

> <PUBCHEM_BOND_DEF_STEREO_COUNT>
0

> <PUBCHEM_BOND_UDEF_STEREO_COUNT>
0

> <PUBCHEM_ISOTOPIC_ATOM_COUNT>
0

> <PUBCHEM_COMPONENT_COUNT>
2

> <PUBCHEM_CACTVS_TAUTO_COUNT>
-1

> <PUBCHEM_COORDINATE_TYPE>
1
5
255

$$$$
