22056563
  -OEChem-08152606512D

  3  1  0     0  0  0  0  0  0999 V2000
    2.0000   -0.5000    0.0000 Mg  0  2  0  0  0  0  0  0  0  0  0  0
    3.7320    0.5000    0.0000 N   0  0  0  0  0  0  0  0  0  0  0  0
    2.8660    0.0000    0.0000 C   0  5  0  0  0  0  0  0  0  0  0  0
  2  3  3  0  0  0  0
M  CHG  2   1   2   3  -1
M  END
> <PUBCHEM_COMPOUND_CID>
22056563

> <PUBCHEM_COMPOUND_CANONICALIZED>
1

> <PUBCHEM_CACTVS_COMPLEXITY>
10

> <PUBCHEM_CACTVS_HBOND_ACCEPTOR>
2

> <PUBCHEM_CACTVS_HBOND_DONOR>
0

> <PUBCHEM_CACTVS_ROTATABLE_BOND>
0

> <PUBCHEM_CACTVS_SUBSKEYS>
AAADcQACAAAAACAAAAAAAAAAAAAAAAAAAAAAAAAAAAAAAAAAAAAABAAAAAAAAAAAAAAAAAAAAAAQAAAAAAAAAAAAAAAAAAAAAAAAAAAAAAAAAAAAAAAAAAAAAAAAAAAAAAAAAAAAAAAAAAAAAAAAAAAAAA==

> <PUBCHEM_IUPAC_OPENEYE_NAME>
magnesium cyanide

> <PUBCHEM_IUPAC_CAS_NAME>
magnesium cyanide

> <PUBCHEM_IUPAC_NAME_MARKUP>
magnesium cyanide

> <PUBCHEM_IUPAC_NAME>
magnesium cyanide

> <PUBCHEM_IUPAC_SYSTEMATIC_NAME>
magnesium cyanide

> <PUBCHEM_IUPAC_TRADITIONAL_NAME>
magnesium cyanide

> <PUBCHEM_IUPAC_INCHI>
InChI=1S/CN.Mg/c1-2;/q-1;+2

> <PUBCHEM_IUPAC_INCHIKEY>
AYPBLNYNGIGABT-UHFFFAOYSA-N

> <PUBCHEM_EXACT_MASS>
49.9881157

> <PUBCHEM_MOLECULAR_FORMULA>
CMgN+

> <PUBCHEM_MOLECULAR_WEIGHT>
50.32

> <PUBCHEM_SMILES>
[C-]#N.[Mg+2]

> <PUBCHEM_CONNECTIVITY_SMILES>
[C-]#N.[Mg+2]

> <PUBCHEM_CACTVS_TPSA>
23.8

> <PUBCHEM_MONOISOTOPIC_WEIGHT>
49.9881157

> <PUBCHEM_TOTAL_CHARGE>
1

> <PUBCHEM_HEAVY_ATOM_COUNT>
3

> <PUBCHEM_ATOM_DEF_STEREO_COUNT>
0

> <PUBCHEM_ATOM_UDEF_STEREO_COUNT>
0

> <PUBCHEM_BOND_DEF_STEREO_COUNT>
0

> <PUBCHEM_BOND_UDEF_STEREO_COUNT>
0

> <PUBCHEM_ISOTOPIC_ATOM_COUNT>
0

> <PUBCHEM_COMPONENT_COUNT>
2

> <PUBCHEM_CACTVS_TAUTO_COUNT>
-1

> <PUBCHEM_COORDINATE_TYPE>
1
5
255

$$$$
