13879826
  -OEChem-08152606412D

  9  0  0     0  0  0  0  0  0999 V2000
    0.0000    0.0000    0.0000 Mn  0  0  0  0  0  0  0  0  0  0  0  0
    0.0000    2.5000    0.0000 Mn  0  0  0  0  0  0  0  0  0  0  0  0
    2.5000    0.0000    0.0000 O   0  6  0  0  0  0  0  0  0  0  0  0
    2.5000    2.5000    0.0000 O   0  6  0  0  0  0  0  0  0  0  0  0
    2.5000    5.0000    0.0000 O   0  6  0  0  0  0  0  0  0  0  0  0
    0.0000    5.0000    0.0000 O   0  6  0  0  0  0  0  0  0  0  0  0
    5.0000    0.0000    0.0000 O   0  6  0  0  0  0  0  0  0  0  0  0
    5.0000    2.5000    0.0000 O   0  6  0  0  0  0  0  0  0  0  0  0
    5.0000    5.0000    0.0000 O   0  6  0  0  0  0  0  0  0  0  0  0
M  CHG  7   3  -2   4  -2   5  -2   6  -2   7  -2   8  -2   9  -2
M  END
> <PUBCHEM_COMPOUND_CID>
13879826

> <PUBCHEM_COMPOUND_CANONICALIZED>
1

> <PUBCHEM_CACTVS_COMPLEXITY>
0

> <PUBCHEM_CACTVS_HBOND_ACCEPTOR>
7

> <PUBCHEM_CACTVS_HBOND_DONOR>
0

> <PUBCHEM_CACTVS_ROTATABLE_BOND>
0

> <PUBCHEM_CACTVS_SUBSKEYS>
AAADcQAAOAAAAABAAAAAAAAAAAAAAAAAAAAAAAAAAAAAAAAAAAAAAAAAAAAAAAAAAAAAAAAAAAAAAAAAAAAAAAAAAAAAAAAAAAAAAAAAAAAAAAAAAAAAAAAAAAAAAAAAAAAAAAAAAAAAAAAAAAAAAAAAAA==

> <PUBCHEM_IUPAC_OPENEYE_NAME>
manganese;heptakis(oxygen(2-))

> <PUBCHEM_IUPAC_CAS_NAME>
manganese;heptakis(oxygen(2-))

> <PUBCHEM_IUPAC_NAME_MARKUP>
manganese;heptakis(oxygen(2-))

> <PUBCHEM_IUPAC_NAME>
manganese;heptakis(oxygen(2-))

> <PUBCHEM_IUPAC_SYSTEMATIC_NAME>
manganese;heptakis(oxygen(2-))

> <PUBCHEM_IUPAC_TRADITIONAL_NAME>
manganese;heptakis(oxygen(2-))

> <PUBCHEM_IUPAC_INCHI>
InChI=1S/2Mn.7O/q;;7*-2

> <PUBCHEM_IUPAC_INCHIKEY>
ZEFXULJEOUCCOQ-UHFFFAOYSA-N

> <PUBCHEM_EXACT_MASS>
221.840488

> <PUBCHEM_MOLECULAR_FORMULA>
Mn2O7-14

> <PUBCHEM_MOLECULAR_WEIGHT>
221.87

> <PUBCHEM_SMILES>
[O-2].[O-2].[O-2].[O-2].[O-2].[O-2].[O-2].[Mn].[Mn]

> <PUBCHEM_CONNECTIVITY_SMILES>
[O-2].[O-2].[O-2].[O-2].[O-2].[O-2].[O-2].[Mn].[Mn]

> <PUBCHEM_CACTVS_TPSA>
7

> <PUBCHEM_MONOISOTOPIC_WEIGHT>
221.840488

> <PUBCHEM_TOTAL_CHARGE>
-14

> <PUBCHEM_HEAVY_ATOM_COUNT>
9

> <PUBCHEM_ATOM_DEF_STEREO_COUNT>
0

> <PUBCHEM_ATOM_UDEF_STEREO_COUNT>
0

> <PUBCHEM_BOND_DEF_STEREO_COUNT>
0

> <PUBCHEM_BOND_UDEF_STEREO_COUNT>
0

> <PUBCHEM_ISOTOPIC_ATOM_COUNT>
0

> <PUBCHEM_COMPONENT_COUNT>
9

> <PUBCHEM_CACTVS_TAUTO_COUNT>
-1

> <PUBCHEM_COORDINATE_TYPE>
1
5
255

$$$$
