82881
  -OEChem-08152607122D

  2  1  0     0  0  0  0  0  0999 V2000
    3.0000    0.0000    0.0000 Mn  0  0  0  0  0  0  0  0  0  0  0  0
    2.0000    0.0000    0.0000 B   0  0  0  0  0  0  0  0  0  0  0  0
  1  2  3  0  0  0  0
M  END
> <PUBCHEM_COMPOUND_CID>
82881

> <PUBCHEM_COMPOUND_CANONICALIZED>
1

> <PUBCHEM_CACTVS_COMPLEXITY>
10

> <PUBCHEM_CACTVS_HBOND_ACCEPTOR>
0

> <PUBCHEM_CACTVS_HBOND_DONOR>
0

> <PUBCHEM_CACTVS_ROTATABLE_BOND>
0

> <PUBCHEM_CACTVS_SUBSKEYS>
AAADcQIAAAAAAABAAAAAAAAAAAAAAAAAAAAAAAAAAAAAAAAAAAAAAAAAAAAAAAAAAAAAAAAAAAAAAAAAAAAAAAAAAAAAAAAAAAAAAAAAAAAAAAAAAAAAAAAAAAAAAAAAAAAAAAAAAAAAAAAAAAAAAAAAAA==

> <PUBCHEM_IUPAC_OPENEYE_NAME>
boranylidynemanganese

> <PUBCHEM_IUPAC_CAS_NAME>
boranylidynemanganese

> <PUBCHEM_IUPAC_NAME_MARKUP>
boranylidynemanganese

> <PUBCHEM_IUPAC_NAME>
boranylidynemanganese

> <PUBCHEM_IUPAC_SYSTEMATIC_NAME>
boranylidynemanganese

> <PUBCHEM_IUPAC_TRADITIONAL_NAME>
borylidynemanganese

> <PUBCHEM_IUPAC_INCHI>
InChI=1S/B.Mn

> <PUBCHEM_IUPAC_INCHIKEY>
PALQHNLJJQMCIQ-UHFFFAOYSA-N

> <PUBCHEM_EXACT_MASS>
65.947348

> <PUBCHEM_MOLECULAR_FORMULA>
BMn

> <PUBCHEM_MOLECULAR_WEIGHT>
65.75

> <PUBCHEM_SMILES>
B#[Mn]

> <PUBCHEM_CONNECTIVITY_SMILES>
B#[Mn]

> <PUBCHEM_CACTVS_TPSA>
0

> <PUBCHEM_MONOISOTOPIC_WEIGHT>
65.947348

> <PUBCHEM_TOTAL_CHARGE>
0

> <PUBCHEM_HEAVY_ATOM_COUNT>
2

> <PUBCHEM_ATOM_DEF_STEREO_COUNT>
0

> <PUBCHEM_ATOM_UDEF_STEREO_COUNT>
0

> <PUBCHEM_BOND_DEF_STEREO_COUNT>
0

> <PUBCHEM_BOND_UDEF_STEREO_COUNT>
0

> <PUBCHEM_ISOTOPIC_ATOM_COUNT>
0

> <PUBCHEM_COMPONENT_COUNT>
1

> <PUBCHEM_CACTVS_TAUTO_COUNT>
-1

> <PUBCHEM_COORDINATE_TYPE>
1
5
255

$$$$
