57466055
  -OEChem-08152604302D

  5  3  0     0  0  0  0  0  0999 V2000
    0.2869    0.0000    0.0000 Mn  0  0  0  0  0  0  0  0  0  0  0  0
    0.5369    3.1200    0.0000 N   0  0  0  0  0  0  0  0  0  0  0  0
    1.0739    3.4300    0.0000 H   0  0  0  0  0  0  0  0  0  0  0  0
    0.0000    3.4300    0.0000 H   0  0  0  0  0  0  0  0  0  0  0  0
    0.5369    2.5000    0.0000 H   0  0  0  0  0  0  0  0  0  0  0  0
  2  3  1  0  0  0  0
  2  4  1  0  0  0  0
  2  5  1  0  0  0  0
M  END
> <PUBCHEM_COMPOUND_CID>
57466055

> <PUBCHEM_COMPOUND_CANONICALIZED>
1

> <PUBCHEM_CACTVS_COMPLEXITY>
0

> <PUBCHEM_CACTVS_HBOND_ACCEPTOR>
1

> <PUBCHEM_CACTVS_HBOND_DONOR>
1

> <PUBCHEM_CACTVS_ROTATABLE_BOND>
0

> <PUBCHEM_CACTVS_SUBSKEYS>
AAADcQACAAAAAABAAAAAAAAAAAAAAAAAAAAAAAAAAAAAAAAAAAAAAAAQAAAAAAAAAAAAAAAAAAAAAAAAAAAAAAAAAAAAAAAAAAAAAAAAAAAAAAAAAAAAAAAAAAAAAAAAAAAAAAAAAAAAAAAAAAAAAAAAAA==

> <PUBCHEM_IUPAC_OPENEYE_NAME>
ammonia;manganese

> <PUBCHEM_IUPAC_CAS_NAME>
ammonia;manganese

> <PUBCHEM_IUPAC_NAME_MARKUP>
azane;manganese

> <PUBCHEM_IUPAC_NAME>
azane;manganese

> <PUBCHEM_IUPAC_SYSTEMATIC_NAME>
azane;manganese

> <PUBCHEM_IUPAC_TRADITIONAL_NAME>
ammonia;manganese

> <PUBCHEM_IUPAC_INCHI>
InChI=1S/Mn.H3N/h;1H3

> <PUBCHEM_IUPAC_INCHIKEY>
RRZKHZBOZDIQJG-UHFFFAOYSA-N

> <PUBCHEM_EXACT_MASS>
71.964592

> <PUBCHEM_MOLECULAR_FORMULA>
H3MnN

> <PUBCHEM_MOLECULAR_WEIGHT>
71.969

> <PUBCHEM_SMILES>
N.[Mn]

> <PUBCHEM_CONNECTIVITY_SMILES>
N.[Mn]

> <PUBCHEM_CACTVS_TPSA>
1

> <PUBCHEM_MONOISOTOPIC_WEIGHT>
71.964592

> <PUBCHEM_TOTAL_CHARGE>
0

> <PUBCHEM_HEAVY_ATOM_COUNT>
2

> <PUBCHEM_ATOM_DEF_STEREO_COUNT>
0

> <PUBCHEM_ATOM_UDEF_STEREO_COUNT>
0

> <PUBCHEM_BOND_DEF_STEREO_COUNT>
0

> <PUBCHEM_BOND_UDEF_STEREO_COUNT>
0

> <PUBCHEM_ISOTOPIC_ATOM_COUNT>
0

> <PUBCHEM_COMPONENT_COUNT>
2

> <PUBCHEM_CACTVS_TAUTO_COUNT>
-1

> <PUBCHEM_COORDINATE_TYPE>
1
5
255

$$$$
