14801
  -OEChem-08152605452D

  3  2  0     0  0  0  0  0  0999 V2000
    2.8660    0.0000    0.0000 Mn  0  0  0  0  0  0  0  0  0  0  0  0
    3.7321    0.5000    0.0000 O   0  0  0  0  0  0  0  0  0  0  0  0
    2.0000   -0.5000    0.0000 O   0  0  0  0  0  0  0  0  0  0  0  0
  1  2  2  0  0  0  0
  1  3  2  0  0  0  0
M  END
> <PUBCHEM_COMPOUND_CID>
14801

> <PUBCHEM_COMPOUND_CANONICALIZED>
1

> <PUBCHEM_CACTVS_COMPLEXITY>
18.3

> <PUBCHEM_CACTVS_HBOND_ACCEPTOR>
2

> <PUBCHEM_CACTVS_HBOND_DONOR>
0

> <PUBCHEM_CACTVS_ROTATABLE_BOND>
0

> <PUBCHEM_CACTVS_SUBSKEYS>
AAADcQAAMAAAAABAAAAAAAAAAAAAAAAAAAAAAAAAAAAAAAAAAAAAAAAAAAAAAAAAAAAAAAAAAAAAAAAAAAAAAAAAAAAAAAAAAAAAAAAAAAAAAAAAAAAAAAAAAAAAAAAAAAAAAAAAAAAAAAAAAAAAAAAAAA==

> <PUBCHEM_IUPAC_OPENEYE_NAME>
dioxomanganese

> <PUBCHEM_IUPAC_CAS_NAME>
dioxomanganese

> <PUBCHEM_IUPAC_NAME_MARKUP>
dioxomanganese

> <PUBCHEM_IUPAC_NAME>
dioxomanganese

> <PUBCHEM_IUPAC_SYSTEMATIC_NAME>
bis(oxidanylidene)manganese

> <PUBCHEM_IUPAC_TRADITIONAL_NAME>
diketomanganese

> <PUBCHEM_IUPAC_INCHI>
InChI=1S/Mn.2O

> <PUBCHEM_IUPAC_INCHIKEY>
NUJOXMJBOLGQSY-UHFFFAOYSA-N

> <PUBCHEM_EXACT_MASS>
86.927872

> <PUBCHEM_MOLECULAR_FORMULA>
MnO2

> <PUBCHEM_MOLECULAR_WEIGHT>
86.937

> <PUBCHEM_SMILES>
O=[Mn]=O

> <PUBCHEM_CONNECTIVITY_SMILES>
O=[Mn]=O

> <PUBCHEM_CACTVS_TPSA>
34.1

> <PUBCHEM_MONOISOTOPIC_WEIGHT>
86.927872

> <PUBCHEM_TOTAL_CHARGE>
0

> <PUBCHEM_HEAVY_ATOM_COUNT>
3

> <PUBCHEM_ATOM_DEF_STEREO_COUNT>
0

> <PUBCHEM_ATOM_UDEF_STEREO_COUNT>
0

> <PUBCHEM_BOND_DEF_STEREO_COUNT>
0

> <PUBCHEM_BOND_UDEF_STEREO_COUNT>
0

> <PUBCHEM_ISOTOPIC_ATOM_COUNT>
0

> <PUBCHEM_COMPONENT_COUNT>
1

> <PUBCHEM_CACTVS_TAUTO_COUNT>
-1

> <PUBCHEM_COORDINATE_TYPE>
1
5
255

$$$$
