873
  -OEChem-08152603193D

 22 22  0     0  0  0  0  0  0999 V2000
   -0.8317   -2.2058   -0.1089 O   0  0  0  0  0  0  0  0  0  0  0  0
    3.9995    0.1471    1.1481 O   0  0  0  0  0  0  0  0  0  0  0  0
    3.5116    0.0550   -1.0683 O   0  0  0  0  0  0  0  0  0  0  0  0
    0.7513    0.1015   -0.6869 C   0  0  0  0  0  0  0  0  0  0  0  0
   -0.6945    0.1780   -0.3224 C   0  0  0  0  0  0  0  0  0  0  0  0
    1.6945    0.1718    0.5190 C   0  0  0  0  0  0  0  0  0  0  0  0
   -1.4231   -0.9798   -0.0490 C   0  0  0  0  0  0  0  0  0  0  0  0
   -1.3163    1.4249   -0.2567 C   0  0  0  0  0  0  0  0  0  0  0  0
   -2.7732   -0.8904    0.2900 C   0  0  0  0  0  0  0  0  0  0  0  0
   -2.6665    1.5141    0.0823 C   0  0  0  0  0  0  0  0  0  0  0  0
   -3.3949    0.3565    0.3556 C   0  0  0  0  0  0  0  0  0  0  0  0
    3.1433    0.1273    0.0971 C   0  0  0  0  0  0  0  0  0  0  0  0
    0.9476   -0.8129   -1.2627 H   0  0  0  0  0  0  0  0  0  0  0  0
    0.9891    0.9171   -1.3842 H   0  0  0  0  0  0  0  0  0  0  0  0
    1.5299    1.1032    1.0726 H   0  0  0  0  0  0  0  0  0  0  0  0
    1.5068   -0.6733    1.1909 H   0  0  0  0  0  0  0  0  0  0  0  0
   -0.7603    2.3354   -0.4649 H   0  0  0  0  0  0  0  0  0  0  0  0
   -3.3529   -1.7839    0.5055 H   0  0  0  0  0  0  0  0  0  0  0  0
   -3.1505    2.4850    0.1340 H   0  0  0  0  0  0  0  0  0  0  0  0
   -4.4461    0.4262    0.6197 H   0  0  0  0  0  0  0  0  0  0  0  0
   -1.4901   -2.8870    0.1115 H   0  0  0  0  0  0  0  0  0  0  0  0
    4.9358    0.1048    0.8586 H   0  0  0  0  0  0  0  0  0  0  0  0
  1  7  1  0  0  0  0
  1 21  1  0  0  0  0
  2 12  1  0  0  0  0
  2 22  1  0  0  0  0
  3 12  2  0  0  0  0
  4  5  1  0  0  0  0
  4  6  1  0  0  0  0
  4 13  1  0  0  0  0
  4 14  1  0  0  0  0
  5  7  1  0  0  0  0
  5  8  2  0  0  0  0
  6 12  1  0  0  0  0
  6 15  1  0  0  0  0
  6 16  1  0  0  0  0
  7  9  2  0  0  0  0
  8 10  1  0  0  0  0
  8 17  1  0  0  0  0
  9 11  1  0  0  0  0
  9 18  1  0  0  0  0
 10 11  2  0  0  0  0
 10 19  1  0  0  0  0
 11 20  1  0  0  0  0
M  END
> <PUBCHEM_COMPOUND_CID>
873

> <PUBCHEM_CONFORMER_RMSD>
0.6

> <PUBCHEM_CONFORMER_DIVERSEORDER>
1
10
7
6
4
14
15
2
13
9
3
5
8
11
12

> <PUBCHEM_MMFF94_PARTIAL_CHARGES>
18
1 -0.53
10 -0.15
11 -0.15
12 0.66
17 0.15
18 0.15
19 0.15
2 -0.65
20 0.15
21 0.45
22 0.5
3 -0.57
4 0.14
5 -0.14
6 0.06
7 0.08
8 -0.15
9 -0.15

> <PUBCHEM_EFFECTIVE_ROTOR_COUNT>
3

> <PUBCHEM_PHARMACOPHORE_FEATURES>
5
1 1 donor
1 2 acceptor
1 3 acceptor
3 2 3 12 anion
6 5 7 8 9 10 11 rings

> <PUBCHEM_HEAVY_ATOM_COUNT>
12

> <PUBCHEM_ATOM_DEF_STEREO_COUNT>
0

> <PUBCHEM_ATOM_UDEF_STEREO_COUNT>
0

> <PUBCHEM_BOND_DEF_STEREO_COUNT>
0

> <PUBCHEM_BOND_UDEF_STEREO_COUNT>
0

> <PUBCHEM_ISOTOPIC_ATOM_COUNT>
0

> <PUBCHEM_COMPONENT_COUNT>
1

> <PUBCHEM_CACTVS_TAUTO_COUNT>
3

> <PUBCHEM_CONFORMER_ID>
0000036900000001

> <PUBCHEM_MMFF94_ENERGY>
23.1963

> <PUBCHEM_FEATURE_SELFOVERLAP>
25.43

> <PUBCHEM_SHAPE_FINGERPRINT>
11132069 177 18341894091050491317
12251169 10 18408317809146081320
12932764 1 17846777408114459422
13024252 1 14201394976413824685
13581323 91 18408606971755380359
14144814 61 18334294262394814416
14325111 11 18410857616212371908
14993402 34 18186522115893429829
15219456 202 17988369165153764566
15669948 3 18336550533317044718
15775835 57 18335422326822717201
16945 1 18409733971580019663
17846911 113 18341891866357756313
18186145 218 17846504681838444000
190213 19 17676204671665530992
19422 9 17676490544725669658
20279233 1 17846498136645797622
20510252 161 18272373053195124481
20645464 45 18131631188062016341
20871998 184 18271532012804807647
23402539 116 18271515481886797815
23463225 33 18115023000711193954
23559900 14 18272093751983139750
2748010 2 18120387449603236823
43471831 8 18334011653631777011
5706482 22 18410004408501498027
6333449 129 18342173371398991181
75552 356 18409168835240370245
77492 1 17603311465880704892

> <PUBCHEM_SHAPE_MULTIPOLES>
229.35
6.36
1.47
0.85
5.24
0.39
-0.01
-0.81
-1.09
-1.27
0.05
0.59
-0.04
0.05

> <PUBCHEM_SHAPE_SELFOVERLAP>
472.558

> <PUBCHEM_SHAPE_VOLUME>
131.2

> <PUBCHEM_COORDINATE_TYPE>
2
5
10

$$$$
