30856
  -OEChem-08152607052D

  2  1  0     0  0  0  0  0  0999 V2000
    3.0000    0.0000    0.0000 Hg  0  0  0  0  0  0  0  0  0  0  0  0
    2.0000    0.0000    0.0000 O   0  0  0  0  0  0  0  0  0  0  0  0
  1  2  2  0  0  0  0
M  END
> <PUBCHEM_COMPOUND_CID>
30856

> <PUBCHEM_COMPOUND_CANONICALIZED>
1

> <PUBCHEM_CACTVS_COMPLEXITY>
2

> <PUBCHEM_CACTVS_HBOND_ACCEPTOR>
1

> <PUBCHEM_CACTVS_HBOND_DONOR>
0

> <PUBCHEM_CACTVS_ROTATABLE_BOND>
0

> <PUBCHEM_CACTVS_SUBSKEYS>
AAADcQAAIAAAAAAAAAAAAQAAAAAAAAAAAAAAAAAAAAAAAAAAAAAAAAAAAAAAAAAAAAAAAAAAAAAAAAAAAAAAAAAAAAAAAAAAAAAAAAAAAAAAAAAAAAAAAAAAAAAAAAAAAAAAAAAAAAAAAAAAAAAAAAAAAA==

> <PUBCHEM_IUPAC_OPENEYE_NAME>
oxomercury

> <PUBCHEM_IUPAC_CAS_NAME>
oxomercury

> <PUBCHEM_IUPAC_NAME_MARKUP>
oxomercury

> <PUBCHEM_IUPAC_NAME>
oxomercury

> <PUBCHEM_IUPAC_SYSTEMATIC_NAME>
oxidanylidenemercury

> <PUBCHEM_IUPAC_TRADITIONAL_NAME>
ketomercury

> <PUBCHEM_IUPAC_INCHI>
InChI=1S/Hg.O

> <PUBCHEM_IUPAC_INCHIKEY>
UKWHYYKOEPRTIC-UHFFFAOYSA-N

> <PUBCHEM_EXACT_MASS>
217.965558

> <PUBCHEM_MOLECULAR_FORMULA>
HgO

> <PUBCHEM_MOLECULAR_WEIGHT>
216.59

> <PUBCHEM_SMILES>
O=[Hg]

> <PUBCHEM_CONNECTIVITY_SMILES>
O=[Hg]

> <PUBCHEM_CACTVS_TPSA>
17.1

> <PUBCHEM_MONOISOTOPIC_WEIGHT>
217.965558

> <PUBCHEM_TOTAL_CHARGE>
0

> <PUBCHEM_HEAVY_ATOM_COUNT>
2

> <PUBCHEM_ATOM_DEF_STEREO_COUNT>
0

> <PUBCHEM_ATOM_UDEF_STEREO_COUNT>
0

> <PUBCHEM_BOND_DEF_STEREO_COUNT>
0

> <PUBCHEM_BOND_UDEF_STEREO_COUNT>
0

> <PUBCHEM_ISOTOPIC_ATOM_COUNT>
0

> <PUBCHEM_COMPONENT_COUNT>
1

> <PUBCHEM_CACTVS_TAUTO_COUNT>
-1

> <PUBCHEM_COORDINATE_TYPE>
1
5
255

$$$$
