82209
  -OEChem-08152604292D

  3  2  0     0  0  0  0  0  0999 V2000
    2.8660   -0.2500    0.0000 Hg  0  0  0  0  0  0  0  0  0  0  0  0
    3.7320    0.2500    0.0000 F   0  0  0  0  0  0  0  0  0  0  0  0
    2.0000    0.2500    0.0000 F   0  0  0  0  0  0  0  0  0  0  0  0
  1  2  1  0  0  0  0
  1  3  1  0  0  0  0
M  END
> <PUBCHEM_COMPOUND_CID>
82209

> <PUBCHEM_COMPOUND_CANONICALIZED>
1

> <PUBCHEM_CACTVS_COMPLEXITY>
2.8

> <PUBCHEM_CACTVS_HBOND_ACCEPTOR>
2

> <PUBCHEM_CACTVS_HBOND_DONOR>
0

> <PUBCHEM_CACTVS_ROTATABLE_BOND>
0

> <PUBCHEM_CACTVS_SUBSKEYS>
AAADcQAAAYAAAAAAAAAAAQAAAAAAAAAAAAAAAAAAAAAAAAAAAAAAAAAAAAAAAAAAAAAAAAAAAAAAAAAAAAAAAAAAAAAAAAAAAAAAAAAAAAAAAAAAAAAAAAAAAAAAAAAAAAAAAAAAAAAAAAAAAAAAAAAAAA==

> <PUBCHEM_IUPAC_OPENEYE_NAME>
difluoromercury

> <PUBCHEM_IUPAC_CAS_NAME>
difluoromercury

> <PUBCHEM_IUPAC_NAME_MARKUP>
difluoromercury

> <PUBCHEM_IUPAC_NAME>
difluoromercury

> <PUBCHEM_IUPAC_SYSTEMATIC_NAME>
bis(fluoranyl)mercury

> <PUBCHEM_IUPAC_TRADITIONAL_NAME>
difluoromercury

> <PUBCHEM_IUPAC_INCHI>
InChI=1S/2FH.Hg/h2*1H;/q;;+2/p-2

> <PUBCHEM_IUPAC_INCHIKEY>
FMSYTQMJOCCCQS-UHFFFAOYSA-L

> <PUBCHEM_EXACT_MASS>
239.967450

> <PUBCHEM_MOLECULAR_FORMULA>
F2Hg

> <PUBCHEM_MOLECULAR_WEIGHT>
238.59

> <PUBCHEM_SMILES>
F[Hg]F

> <PUBCHEM_CONNECTIVITY_SMILES>
F[Hg]F

> <PUBCHEM_CACTVS_TPSA>
0

> <PUBCHEM_MONOISOTOPIC_WEIGHT>
239.967450

> <PUBCHEM_TOTAL_CHARGE>
0

> <PUBCHEM_HEAVY_ATOM_COUNT>
3

> <PUBCHEM_ATOM_DEF_STEREO_COUNT>
0

> <PUBCHEM_ATOM_UDEF_STEREO_COUNT>
0

> <PUBCHEM_BOND_DEF_STEREO_COUNT>
0

> <PUBCHEM_BOND_UDEF_STEREO_COUNT>
0

> <PUBCHEM_ISOTOPIC_ATOM_COUNT>
0

> <PUBCHEM_COMPONENT_COUNT>
1

> <PUBCHEM_CACTVS_TAUTO_COUNT>
-1

> <PUBCHEM_COORDINATE_TYPE>
1
5
255

$$$$
