24541
  -OEChem-08152607302D

  2  1  0     0  0  0  0  0  0999 V2000
    2.0000    0.0000    0.0000 Hg  0  0  0  0  0  0  0  0  0  0  0  0
    3.0000    0.0000    0.0000 I   0  0  0  0  0  0  0  0  0  0  0  0
  1  2  1  0  0  0  0
M  END
> <PUBCHEM_COMPOUND_CID>
24541

> <PUBCHEM_COMPOUND_CANONICALIZED>
1

> <PUBCHEM_CACTVS_COMPLEXITY>
2

> <PUBCHEM_CACTVS_HBOND_ACCEPTOR>
0

> <PUBCHEM_CACTVS_HBOND_DONOR>
0

> <PUBCHEM_CACTVS_ROTATABLE_BOND>
0

> <PUBCHEM_CACTVS_SUBSKEYS>
AAADcQAAAAAAAgAAAAAAAQAAAAAAAAAAAAAAAAAAAAAAAAAAAAAAAAAAAAAAAAAAAAAAAAAAAAAAAAAAAAAAAAAAAAAAAAAAAAAAAAAAAAAAAAAAAAAAAAAAAAAAAAAAAAAAAAAAAAAAAAAAAAAAAAAAAA==

> <PUBCHEM_IUPAC_OPENEYE_NAME>
iodomercury

> <PUBCHEM_IUPAC_CAS_NAME>
iodomercury

> <PUBCHEM_IUPAC_NAME_MARKUP>
iodomercury

> <PUBCHEM_IUPAC_NAME>
iodomercury

> <PUBCHEM_IUPAC_SYSTEMATIC_NAME>
iodanylmercury

> <PUBCHEM_IUPAC_TRADITIONAL_NAME>
iodomercury

> <PUBCHEM_IUPAC_INCHI>
InChI=1S/Hg.HI/h;1H/q+1;/p-1

> <PUBCHEM_IUPAC_INCHIKEY>
QKEOZZYXWAIQFO-UHFFFAOYSA-M

> <PUBCHEM_EXACT_MASS>
328.87512

> <PUBCHEM_MOLECULAR_FORMULA>
HgI

> <PUBCHEM_MOLECULAR_WEIGHT>
327.50

> <PUBCHEM_SMILES>
I[Hg]

> <PUBCHEM_CONNECTIVITY_SMILES>
I[Hg]

> <PUBCHEM_CACTVS_TPSA>
0

> <PUBCHEM_MONOISOTOPIC_WEIGHT>
328.87512

> <PUBCHEM_TOTAL_CHARGE>
0

> <PUBCHEM_HEAVY_ATOM_COUNT>
2

> <PUBCHEM_ATOM_DEF_STEREO_COUNT>
0

> <PUBCHEM_ATOM_UDEF_STEREO_COUNT>
0

> <PUBCHEM_BOND_DEF_STEREO_COUNT>
0

> <PUBCHEM_BOND_UDEF_STEREO_COUNT>
0

> <PUBCHEM_ISOTOPIC_ATOM_COUNT>
0

> <PUBCHEM_COMPONENT_COUNT>
1

> <PUBCHEM_CACTVS_TAUTO_COUNT>
-1

> <PUBCHEM_COORDINATE_TYPE>
1
5
255

$$$$
