82914
  -OEChem-08152605562D

  2  1  0     0  0  0  0  0  0999 V2000
    3.0000    0.0000    0.0000 Hg  0  0  0  0  0  0  0  0  0  0  0  0
    2.0000    0.0000    0.0000 Te  0  0  0  0  0  0  0  0  0  0  0  0
  1  2  2  0  0  0  0
M  END
> <PUBCHEM_COMPOUND_CID>
82914

> <PUBCHEM_COMPOUND_CANONICALIZED>
1

> <PUBCHEM_CACTVS_COMPLEXITY>
2

> <PUBCHEM_CACTVS_HBOND_ACCEPTOR>
0

> <PUBCHEM_CACTVS_HBOND_DONOR>
0

> <PUBCHEM_CACTVS_ROTATABLE_BOND>
0

> <PUBCHEM_CACTVS_SUBSKEYS>
AAADcQAAAAAAAAAAAAAgAQAAAAAAAAAAAAAAAAAAAAAAAAAAAAAAAAAAAAAAAAAAAAAAAAAAAAAAAAAAAAAAAAAAAAAAAAAAAAAAAAAAAAAAAAAAAAAAAAAAAAAAAAAAAAAAAAAAAAAAAAAAAAAAAAAAAA==

> <PUBCHEM_IUPAC_OPENEYE_NAME>
telluroxomercury

> <PUBCHEM_IUPAC_CAS_NAME>
tellanylidenemercury

> <PUBCHEM_IUPAC_NAME_MARKUP>
tellanylidenemercury

> <PUBCHEM_IUPAC_NAME>
tellanylidenemercury

> <PUBCHEM_IUPAC_SYSTEMATIC_NAME>
tellanylidenemercury

> <PUBCHEM_IUPAC_TRADITIONAL_NAME>
telluroxomercury

> <PUBCHEM_IUPAC_INCHI>
InChI=1S/Hg.Te

> <PUBCHEM_IUPAC_INCHIKEY>
VCEXCCILEWFFBG-UHFFFAOYSA-N

> <PUBCHEM_EXACT_MASS>
331.876866

> <PUBCHEM_MOLECULAR_FORMULA>
HgTe

> <PUBCHEM_MOLECULAR_WEIGHT>
328.2

> <PUBCHEM_SMILES>
[Te]=[Hg]

> <PUBCHEM_CONNECTIVITY_SMILES>
[Te]=[Hg]

> <PUBCHEM_CACTVS_TPSA>
0

> <PUBCHEM_MONOISOTOPIC_WEIGHT>
331.876866

> <PUBCHEM_TOTAL_CHARGE>
0

> <PUBCHEM_HEAVY_ATOM_COUNT>
2

> <PUBCHEM_ATOM_DEF_STEREO_COUNT>
0

> <PUBCHEM_ATOM_UDEF_STEREO_COUNT>
0

> <PUBCHEM_BOND_DEF_STEREO_COUNT>
0

> <PUBCHEM_BOND_UDEF_STEREO_COUNT>
0

> <PUBCHEM_ISOTOPIC_ATOM_COUNT>
0

> <PUBCHEM_COMPONENT_COUNT>
1

> <PUBCHEM_CACTVS_TAUTO_COUNT>
-1

> <PUBCHEM_COORDINATE_TYPE>
1
5
255

$$$$
