140876399
  -OEChem-08152606292D

  5  4  0     0  0  0  0  0  0999 V2000
    2.0000    0.0000    0.0000 At  1  0  0  0  0  0  0  0  0  0  0  0
    3.0000    0.0000    0.0000 C   0  0  0  0  0  0  0  0  0  0  0  0
    3.0000   -0.6200    0.0000 H   0  0  0  0  0  0  0  0  0  0  0  0
    3.6200   -0.0000    0.0000 H   0  0  0  0  0  0  0  0  0  0  0  0
    3.0000    0.6200    0.0000 H   0  0  0  0  0  0  0  0  0  0  0  0
  1  2  1  0  0  0  0
  2  3  1  0  0  0  0
  2  4  1  0  0  0  0
  2  5  1  0  0  0  0
M  ISO  1   1 211
M  END
> <PUBCHEM_COMPOUND_CID>
140876399

> <PUBCHEM_COMPOUND_CANONICALIZED>
1

> <PUBCHEM_CACTVS_COMPLEXITY>
2

> <PUBCHEM_CACTVS_HBOND_ACCEPTOR>
0

> <PUBCHEM_CACTVS_HBOND_DONOR>
0

> <PUBCHEM_CACTVS_ROTATABLE_BOND>
0

> <PUBCHEM_CACTVS_SUBSKEYS>
AAADcQAAAAAAAAAAAAAAAAAAAAAAAAAAAAAAAAAAAAAAAAAAAAAAEAAAAAAAAAAAAAACAAAAAAAAAAAAAAAAAAAAAAAAAAAAAAAAAAAAAAAAAAAAAAAAAAAAAAAAAAAAAAAAAAAAAAAAAAAAAAAAAAAAAA==

> <PUBCHEM_IUPAC_OPENEYE_NAME>
methyl(211At)astatine-211

> <PUBCHEM_IUPAC_CAS_NAME>
methyl(211At)astatine-211

> <PUBCHEM_IUPAC_NAME_MARKUP>
methyl(<SUP>211</SUP>At)astatine-211

> <PUBCHEM_IUPAC_NAME>
methyl(211At)astatine-211

> <PUBCHEM_IUPAC_SYSTEMATIC_NAME>
methyl(211At)astatine-211

> <PUBCHEM_IUPAC_TRADITIONAL_NAME>
methyl(211At)astatine-211

> <PUBCHEM_IUPAC_INCHI>
InChI=1S/CH3At/c1-2/h1H3/i2+1

> <PUBCHEM_IUPAC_INCHIKEY>
BWJBVRGGDDLNAZ-VQEHIDDOSA-N

> <PUBCHEM_EXACT_MASS>
226.01097

> <PUBCHEM_MOLECULAR_FORMULA>
CH3At

> <PUBCHEM_MOLECULAR_WEIGHT>
226.022

> <PUBCHEM_SMILES>
C[211At]

> <PUBCHEM_CONNECTIVITY_SMILES>
C[At]

> <PUBCHEM_CACTVS_TPSA>
0

> <PUBCHEM_MONOISOTOPIC_WEIGHT>
226.01097

> <PUBCHEM_TOTAL_CHARGE>
0

> <PUBCHEM_HEAVY_ATOM_COUNT>
2

> <PUBCHEM_ATOM_DEF_STEREO_COUNT>
0

> <PUBCHEM_ATOM_UDEF_STEREO_COUNT>
0

> <PUBCHEM_BOND_DEF_STEREO_COUNT>
0

> <PUBCHEM_BOND_UDEF_STEREO_COUNT>
0

> <PUBCHEM_ISOTOPIC_ATOM_COUNT>
1

> <PUBCHEM_COMPONENT_COUNT>
1

> <PUBCHEM_CACTVS_TAUTO_COUNT>
-1

> <PUBCHEM_COORDINATE_TYPE>
1
5
255

$$$$
