2734010
  -OEChem-08152606222D

  8  6  0     0  0  0  0  0  0999 V2000
    3.1455    0.2192    0.0000 Re  0  0  0  0  0  0  0  0  0  0  0  0
    3.8526    0.9263    0.0000 O   0  0  0  0  0  0  0  0  0  0  0  0
    2.4384    0.9263    0.0000 O   0  0  0  0  0  0  0  0  0  0  0  0
    3.8526   -0.4879    0.0000 O   0  0  0  0  0  0  0  0  0  0  0  0
    2.4384   -0.4879    0.0000 C   0  5  0  0  0  0  0  0  0  0  0  0
    2.0000   -0.9263    0.0000 H   0  0  0  0  0  0  0  0  0  0  0  0
    2.0000   -0.0495    0.0000 H   0  0  0  0  0  0  0  0  0  0  0  0
    2.8768   -0.9263    0.0000 H   0  0  0  0  0  0  0  0  0  0  0  0
  1  2  2  0  0  0  0
  1  3  2  0  0  0  0
  1  4  2  0  0  0  0
  5  6  1  0  0  0  0
  5  7  1  0  0  0  0
  5  8  1  0  0  0  0
M  CHG  1   5  -1
M  END
> <PUBCHEM_COMPOUND_CID>
2734010

> <PUBCHEM_COMPOUND_CANONICALIZED>
1

> <PUBCHEM_CACTVS_COMPLEXITY>
65.5

> <PUBCHEM_CACTVS_HBOND_ACCEPTOR>
4

> <PUBCHEM_CACTVS_HBOND_DONOR>
0

> <PUBCHEM_CACTVS_ROTATABLE_BOND>
0

> <PUBCHEM_CACTVS_SUBSKEYS>
AAADcQAAMAAAAAAAAAAAIAAAAAAAAAAAAAAAAAAAAAAAAAAAAAAAEAAAAAAAAAAAAAACAAAAAAAAAAAAAAAAAAAAAAAAAAAAAAAAAAAAAAAAAAAAAAAAAAAAAAAAAAAAAAAAAAAAAAAAAAAAAAAAAAAAAA==

> <PUBCHEM_IUPAC_OPENEYE_NAME>
carbanide;trioxorhenium

> <PUBCHEM_IUPAC_CAS_NAME>
carbanide;trioxorhenium

> <PUBCHEM_IUPAC_NAME_MARKUP>
carbanide;trioxorhenium

> <PUBCHEM_IUPAC_NAME>
carbanide;trioxorhenium

> <PUBCHEM_IUPAC_SYSTEMATIC_NAME>
carbanide;tris(oxidanylidene)rhenium

> <PUBCHEM_IUPAC_TRADITIONAL_NAME>
carbanide;triketorhenium

> <PUBCHEM_IUPAC_INCHI>
InChI=1S/CH3.3O.Re/h1H3;;;;/q-1;;;;

> <PUBCHEM_IUPAC_INCHIKEY>
VZSXFJPZOCRDPW-UHFFFAOYSA-N

> <PUBCHEM_EXACT_MASS>
249.963971

> <PUBCHEM_MOLECULAR_FORMULA>
CH3O3Re-

> <PUBCHEM_MOLECULAR_WEIGHT>
249.24

> <PUBCHEM_SMILES>
[CH3-].O=[Re](=O)=O

> <PUBCHEM_CONNECTIVITY_SMILES>
[CH3-].O=[Re](=O)=O

> <PUBCHEM_CACTVS_TPSA>
51.2

> <PUBCHEM_MONOISOTOPIC_WEIGHT>
249.963971

> <PUBCHEM_TOTAL_CHARGE>
-1

> <PUBCHEM_HEAVY_ATOM_COUNT>
5

> <PUBCHEM_ATOM_DEF_STEREO_COUNT>
0

> <PUBCHEM_ATOM_UDEF_STEREO_COUNT>
0

> <PUBCHEM_BOND_DEF_STEREO_COUNT>
0

> <PUBCHEM_BOND_UDEF_STEREO_COUNT>
0

> <PUBCHEM_ISOTOPIC_ATOM_COUNT>
0

> <PUBCHEM_COMPONENT_COUNT>
2

> <PUBCHEM_CACTVS_TAUTO_COUNT>
-1

> <PUBCHEM_NONSTANDARDBOND>
1  5  6

> <PUBCHEM_COORDINATE_TYPE>
1
5
255

$$$$
