409301
  -OEChem-08152607122D

  6  5  0     0  0  0  0  0  0999 V2000
    2.8660   -0.2500    0.0000 Hg  0  0  0  0  0  0  0  0  0  0  0  0
    3.7321    0.2500    0.0000 Cl  0  0  0  0  0  0  0  0  0  0  0  0
    2.0000    0.2500    0.0000 C   0  0  0  0  0  0  0  0  0  0  0  0
    2.3100    0.7869    0.0000 H   0  0  0  0  0  0  0  0  0  0  0  0
    1.4631    0.5600    0.0000 H   0  0  0  0  0  0  0  0  0  0  0  0
    1.6900   -0.2869    0.0000 H   0  0  0  0  0  0  0  0  0  0  0  0
  1  2  1  0  0  0  0
  1  3  1  0  0  0  0
  3  4  1  0  0  0  0
  3  5  1  0  0  0  0
  3  6  1  0  0  0  0
M  END
> <PUBCHEM_COMPOUND_CID>
409301

> <PUBCHEM_COMPOUND_CANONICALIZED>
1

> <PUBCHEM_CACTVS_COMPLEXITY>
4.8

> <PUBCHEM_CACTVS_HBOND_ACCEPTOR>
0

> <PUBCHEM_CACTVS_HBOND_DONOR>
0

> <PUBCHEM_CACTVS_ROTATABLE_BOND>
0

> <PUBCHEM_CACTVS_SUBSKEYS>
AAADcQAAAAAEAAAAAAAAAQAAAAAAAAAAAAAAAAAAAAAAAAAAAAAAEAAAAAAAAAAAAAACAAAAAAAAAAAAAAAAAAAAAAAAAAAAAAAAAAAAAAAAAAAAAAAAAAAAAAAAAAAAAAAAAAAAAAAAAAAAAAAAAAAAAA==

> <PUBCHEM_IUPAC_OPENEYE_NAME>
chloro(methyl)mercury

> <PUBCHEM_IUPAC_CAS_NAME>
chloro(methyl)mercury

> <PUBCHEM_IUPAC_NAME_MARKUP>
chloro(methyl)mercury

> <PUBCHEM_IUPAC_NAME>
chloro(methyl)mercury

> <PUBCHEM_IUPAC_SYSTEMATIC_NAME>
chloranyl(methyl)mercury

> <PUBCHEM_IUPAC_TRADITIONAL_NAME>
chloro(methyl)mercury

> <PUBCHEM_IUPAC_INCHI>
InChI=1S/CH3.ClH.Hg/h1H3;1H;/q;;+1/p-1

> <PUBCHEM_IUPAC_INCHIKEY>
BABMCXWQNSQAOC-UHFFFAOYSA-M

> <PUBCHEM_EXACT_MASS>
251.962971

> <PUBCHEM_MOLECULAR_FORMULA>
CH3ClHg

> <PUBCHEM_MOLECULAR_WEIGHT>
251.08

> <PUBCHEM_SMILES>
C[Hg]Cl

> <PUBCHEM_CONNECTIVITY_SMILES>
C[Hg]Cl

> <PUBCHEM_CACTVS_TPSA>
0

> <PUBCHEM_MONOISOTOPIC_WEIGHT>
251.962971

> <PUBCHEM_TOTAL_CHARGE>
0

> <PUBCHEM_HEAVY_ATOM_COUNT>
3

> <PUBCHEM_ATOM_DEF_STEREO_COUNT>
0

> <PUBCHEM_ATOM_UDEF_STEREO_COUNT>
0

> <PUBCHEM_BOND_DEF_STEREO_COUNT>
0

> <PUBCHEM_BOND_UDEF_STEREO_COUNT>
0

> <PUBCHEM_ISOTOPIC_ATOM_COUNT>
0

> <PUBCHEM_COMPONENT_COUNT>
1

> <PUBCHEM_CACTVS_TAUTO_COUNT>
-1

> <PUBCHEM_COORDINATE_TYPE>
1
5
255

$$$$
