194034
  -OEChem-08152607182D

  7  0  0     0  0  0  0  0  0999 V2000
    3.1160    3.7321    0.0000 Mo  0  0  0  0  0  0  0  0  0  0  0  0
    3.3660    0.8660    0.0000 Zr  0  0  0  0  0  0  0  0  0  0  0  0
    4.2321    1.3660    0.0000 O   0  6  0  0  0  0  0  0  0  0  0  0
    2.5000    0.3660    0.0000 O   0  6  0  0  0  0  0  0  0  0  0  0
    2.8660    1.7321    0.0000 O   0  6  0  0  0  0  0  0  0  0  0  0
    3.8660    0.0000    0.0000 O   0  6  0  0  0  0  0  0  0  0  0  0
    0.0000    1.8660    0.0000 O   0  6  0  0  0  0  0  0  0  0  0  0
M  CHG  6   2   4   3  -2   4  -2   5  -2   6  -2   7  -2
M  END
> <PUBCHEM_COMPOUND_CID>
194034

> <PUBCHEM_COMPOUND_CANONICALIZED>
1

> <PUBCHEM_CACTVS_COMPLEXITY>
0

> <PUBCHEM_CACTVS_HBOND_ACCEPTOR>
5

> <PUBCHEM_CACTVS_HBOND_DONOR>
0

> <PUBCHEM_CACTVS_ROTATABLE_BOND>
0

> <PUBCHEM_CACTVS_SUBSKEYS>
AAADcQAAOAAAAAAAAUAAAAAAAAAAAAAAAAAAAAAAAAAAAAAAAAAAAAAAAAAAAAAAAAAAAAAAAAAAAAAAAAAAAAAAAAAAAAAAAAAAAAAAAAAAAAAAAAAAAAAAAAAAAAAAAAAAAAAAAAAAAAAAAAAAAAAAAA==

> <PUBCHEM_IUPAC_OPENEYE_NAME>
molybdenum;pentakis(oxygen(2-));zirconium(4+)

> <PUBCHEM_IUPAC_CAS_NAME>
molybdenum;pentakis(oxygen(2-));zirconium(4+)

> <PUBCHEM_IUPAC_NAME_MARKUP>
molybdenum;pentakis(oxygen(2-));zirconium(4+)

> <PUBCHEM_IUPAC_NAME>
molybdenum;pentakis(oxygen(2-));zirconium(4+)

> <PUBCHEM_IUPAC_SYSTEMATIC_NAME>
molybdenum;pentakis(oxygen(2-));zirconium(4+)

> <PUBCHEM_IUPAC_TRADITIONAL_NAME>
molybdenum;pentakis(oxygen(2-));zirconium(4+)

> <PUBCHEM_IUPAC_INCHI>
InChI=1S/Mo.5O.Zr/q;5*-2;+4

> <PUBCHEM_IUPAC_INCHIKEY>
ROCMBJXQBACDBX-UHFFFAOYSA-N

> <PUBCHEM_EXACT_MASS>
267.784675

> <PUBCHEM_MOLECULAR_FORMULA>
MoO5Zr-6

> <PUBCHEM_MOLECULAR_WEIGHT>
267.17

> <PUBCHEM_SMILES>
[O-2].[O-2].[O-2].[O-2].[O-2].[Zr+4].[Mo]

> <PUBCHEM_CONNECTIVITY_SMILES>
[O-2].[O-2].[O-2].[O-2].[O-2].[Zr+4].[Mo]

> <PUBCHEM_CACTVS_TPSA>
5

> <PUBCHEM_MONOISOTOPIC_WEIGHT>
267.784675

> <PUBCHEM_TOTAL_CHARGE>
-6

> <PUBCHEM_HEAVY_ATOM_COUNT>
7

> <PUBCHEM_ATOM_DEF_STEREO_COUNT>
0

> <PUBCHEM_ATOM_UDEF_STEREO_COUNT>
0

> <PUBCHEM_BOND_DEF_STEREO_COUNT>
0

> <PUBCHEM_BOND_UDEF_STEREO_COUNT>
0

> <PUBCHEM_ISOTOPIC_ATOM_COUNT>
0

> <PUBCHEM_COMPONENT_COUNT>
7

> <PUBCHEM_CACTVS_TAUTO_COUNT>
-1

> <PUBCHEM_COORDINATE_TYPE>
1
5
255

$$$$
