82831
  -OEChem-08152607122D

  4  3  0     0  0  0  0  0  0999 V2000
    2.8660    0.2500    0.0000 Mo  0  0  0  0  0  0  0  0  0  0  0  0
    3.7321    0.7500    0.0000 S   0  0  0  0  0  0  0  0  0  0  0  0
    2.0000    0.7500    0.0000 S   0  0  0  0  0  0  0  0  0  0  0  0
    2.8660   -0.7500    0.0000 S   0  0  0  0  0  0  0  0  0  0  0  0
  1  2  2  0  0  0  0
  1  3  2  0  0  0  0
  1  4  2  0  0  0  0
M  END
> <PUBCHEM_COMPOUND_CID>
82831

> <PUBCHEM_COMPOUND_CANONICALIZED>
1

> <PUBCHEM_CACTVS_COMPLEXITY>
61.8

> <PUBCHEM_CACTVS_HBOND_ACCEPTOR>
3

> <PUBCHEM_CACTVS_HBOND_DONOR>
0

> <PUBCHEM_CACTVS_ROTATABLE_BOND>
0

> <PUBCHEM_CACTVS_SUBSKEYS>
AAADcQAAAABgAAAAAEAAAAAAAAAAAAAAAAAAAAAAAAAAAAAAAAAAAAAAAAAAAAAAAAAAAAAAAAAAAAAAAAAAAAAAAAAAAAAAAAAAAAAAAAAAAAAAAAAAAAAAAAAAAAAAAAAAAAAAAAAAAAAAAAAAAAAAAA==

> <PUBCHEM_IUPAC_OPENEYE_NAME>
trithioxomolybdenum

> <PUBCHEM_IUPAC_CAS_NAME>
tris(sulfanylidene)molybdenum

> <PUBCHEM_IUPAC_NAME_MARKUP>
tris(sulfanylidene)molybdenum

> <PUBCHEM_IUPAC_NAME>
tris(sulfanylidene)molybdenum

> <PUBCHEM_IUPAC_SYSTEMATIC_NAME>
tris(sulfanylidene)molybdenum

> <PUBCHEM_IUPAC_TRADITIONAL_NAME>
trithioxomolybdenum

> <PUBCHEM_IUPAC_INCHI>
InChI=1S/Mo.3S

> <PUBCHEM_IUPAC_INCHIKEY>
TVWWSIKTCILRBF-UHFFFAOYSA-N

> <PUBCHEM_EXACT_MASS>
193.821617

> <PUBCHEM_MOLECULAR_FORMULA>
MoS3

> <PUBCHEM_MOLECULAR_WEIGHT>
192.2

> <PUBCHEM_SMILES>
S=[Mo](=S)=S

> <PUBCHEM_CONNECTIVITY_SMILES>
S=[Mo](=S)=S

> <PUBCHEM_CACTVS_TPSA>
96.3

> <PUBCHEM_MONOISOTOPIC_WEIGHT>
193.821617

> <PUBCHEM_TOTAL_CHARGE>
0

> <PUBCHEM_HEAVY_ATOM_COUNT>
4

> <PUBCHEM_ATOM_DEF_STEREO_COUNT>
0

> <PUBCHEM_ATOM_UDEF_STEREO_COUNT>
0

> <PUBCHEM_BOND_DEF_STEREO_COUNT>
0

> <PUBCHEM_BOND_UDEF_STEREO_COUNT>
0

> <PUBCHEM_ISOTOPIC_ATOM_COUNT>
0

> <PUBCHEM_COMPONENT_COUNT>
1

> <PUBCHEM_CACTVS_TAUTO_COUNT>
-1

> <PUBCHEM_COORDINATE_TYPE>
1
5
255

$$$$
