82894
  -OEChem-08152607022D

  3  2  0     0  0  0  0  0  0999 V2000
    2.8660    0.0000    0.0000 Mo  0  0  0  0  0  0  0  0  0  0  0  0
    3.7321    0.5000    0.0000 Se  0  0  0  0  0  0  0  0  0  0  0  0
    2.0000   -0.5000    0.0000 Se  0  0  0  0  0  0  0  0  0  0  0  0
  1  2  2  0  0  0  0
  1  3  2  0  0  0  0
M  END
> <PUBCHEM_COMPOUND_CID>
82894

> <PUBCHEM_COMPOUND_CANONICALIZED>
1

> <PUBCHEM_CACTVS_COMPLEXITY>
18.3

> <PUBCHEM_CACTVS_HBOND_ACCEPTOR>
0

> <PUBCHEM_CACTVS_HBOND_DONOR>
0

> <PUBCHEM_CACTVS_ROTATABLE_BOND>
0

> <PUBCHEM_CACTVS_SUBSKEYS>
AAADcQAAAAAAAAAAIEAAAAAAAAAAAAAAAAAAAAAAAAAAAAAAAAAAAAAAAAAAAAAAAAAAAAAAAAAAAAAAAAAAAAAAAAAAAAAAAAAAAAAAAAAAAAAAAAAAAAAAAAAAAAAAAAAAAAAAAAAAAAAAAAAAAAAAAA==

> <PUBCHEM_IUPAC_OPENEYE_NAME>
diselenoxomolybdenum

> <PUBCHEM_IUPAC_CAS_NAME>
bis(selanylidene)molybdenum

> <PUBCHEM_IUPAC_NAME_MARKUP>
bis(selanylidene)molybdenum

> <PUBCHEM_IUPAC_NAME>
bis(selanylidene)molybdenum

> <PUBCHEM_IUPAC_SYSTEMATIC_NAME>
bis(selanylidene)molybdenum

> <PUBCHEM_IUPAC_TRADITIONAL_NAME>
diselenoxomolybdenum

> <PUBCHEM_IUPAC_INCHI>
InChI=1S/Mo.2Se

> <PUBCHEM_IUPAC_INCHIKEY>
MHWZQNGIEIYAQJ-UHFFFAOYSA-N

> <PUBCHEM_EXACT_MASS>
257.73845

> <PUBCHEM_MOLECULAR_FORMULA>
MoSe2

> <PUBCHEM_MOLECULAR_WEIGHT>
253.9

> <PUBCHEM_SMILES>
[Se]=[Mo]=[Se]

> <PUBCHEM_CONNECTIVITY_SMILES>
[Se]=[Mo]=[Se]

> <PUBCHEM_CACTVS_TPSA>
0

> <PUBCHEM_MONOISOTOPIC_WEIGHT>
257.73845

> <PUBCHEM_TOTAL_CHARGE>
0

> <PUBCHEM_HEAVY_ATOM_COUNT>
3

> <PUBCHEM_ATOM_DEF_STEREO_COUNT>
0

> <PUBCHEM_ATOM_UDEF_STEREO_COUNT>
0

> <PUBCHEM_BOND_DEF_STEREO_COUNT>
0

> <PUBCHEM_BOND_UDEF_STEREO_COUNT>
0

> <PUBCHEM_ISOTOPIC_ATOM_COUNT>
0

> <PUBCHEM_COMPONENT_COUNT>
1

> <PUBCHEM_CACTVS_TAUTO_COUNT>
-1

> <PUBCHEM_COORDINATE_TYPE>
1
5
255

$$$$
