197134
  -OEChem-08152605542D

  6  4  0     0  0  0  0  0  0999 V2000
    0.2869    0.0000    0.0000 Mo  0  0  0  0  0  0  0  0  0  0  0  0
    0.5369    3.0369    0.0000 C   0  0  0  0  0  0  0  0  0  0  0  0
    1.0739    3.3469    0.0000 H   0  0  0  0  0  0  0  0  0  0  0  0
    0.0000    2.7269    0.0000 H   0  0  0  0  0  0  0  0  0  0  0  0
    0.2269    3.5739    0.0000 H   0  0  0  0  0  0  0  0  0  0  0  0
    0.8469    2.5000    0.0000 H   0  0  0  0  0  0  0  0  0  0  0  0
  2  3  1  0  0  0  0
  2  4  1  0  0  0  0
  2  5  1  0  0  0  0
  2  6  1  0  0  0  0
M  END
> <PUBCHEM_COMPOUND_CID>
197134

> <PUBCHEM_COMPOUND_CANONICALIZED>
1

> <PUBCHEM_CACTVS_COMPLEXITY>
0

> <PUBCHEM_CACTVS_HBOND_ACCEPTOR>
0

> <PUBCHEM_CACTVS_HBOND_DONOR>
0

> <PUBCHEM_CACTVS_ROTATABLE_BOND>
0

> <PUBCHEM_CACTVS_SUBSKEYS>
AAADcYAAAAAAAAAAAEAAAAAAAAAAAAAAAAAAAAAAAAAAAAAAAAAAEAAAAAAAAAAAAAACAAAAAAAAAAAAAAAAAAAAAAAAAAAAAAAAAAAAAAAAAAAAAAAAAAAAAAAAAAAAAAAAAAAAAAAAAAAAAAAAAAAAAA==

> <PUBCHEM_IUPAC_OPENEYE_NAME>
methane;molybdenum

> <PUBCHEM_IUPAC_CAS_NAME>
methane;molybdenum

> <PUBCHEM_IUPAC_NAME_MARKUP>
methane;molybdenum

> <PUBCHEM_IUPAC_NAME>
methane;molybdenum

> <PUBCHEM_IUPAC_SYSTEMATIC_NAME>
methane;molybdenum

> <PUBCHEM_IUPAC_TRADITIONAL_NAME>
methane;molybdenum

> <PUBCHEM_IUPAC_INCHI>
InChI=1S/CH4.Mo/h1H4;

> <PUBCHEM_IUPAC_INCHIKEY>
CNEOGBIICRAWOH-UHFFFAOYSA-N

> <PUBCHEM_EXACT_MASS>
113.936704

> <PUBCHEM_MOLECULAR_FORMULA>
CH4Mo

> <PUBCHEM_MOLECULAR_WEIGHT>
111.99

> <PUBCHEM_SMILES>
C.[Mo]

> <PUBCHEM_CONNECTIVITY_SMILES>
C.[Mo]

> <PUBCHEM_CACTVS_TPSA>
0

> <PUBCHEM_MONOISOTOPIC_WEIGHT>
113.936704

> <PUBCHEM_TOTAL_CHARGE>
0

> <PUBCHEM_HEAVY_ATOM_COUNT>
2

> <PUBCHEM_ATOM_DEF_STEREO_COUNT>
0

> <PUBCHEM_ATOM_UDEF_STEREO_COUNT>
0

> <PUBCHEM_BOND_DEF_STEREO_COUNT>
0

> <PUBCHEM_BOND_UDEF_STEREO_COUNT>
0

> <PUBCHEM_ISOTOPIC_ATOM_COUNT>
0

> <PUBCHEM_COMPONENT_COUNT>
2

> <PUBCHEM_CACTVS_TAUTO_COUNT>
-1

> <PUBCHEM_COORDINATE_TYPE>
1
5
255

$$$$
