82830
  -OEChem-08152605122D

  2  1  0     0  0  0  0  0  0999 V2000
    3.0000    0.0000    0.0000 Mo  0  0  0  0  0  0  0  0  0  0  0  0
    2.0000    0.0000    0.0000 N   0  0  0  0  0  0  0  0  0  0  0  0
  1  2  3  0  0  0  0
M  END
> <PUBCHEM_COMPOUND_CID>
82830

> <PUBCHEM_COMPOUND_CANONICALIZED>
1

> <PUBCHEM_CACTVS_COMPLEXITY>
10

> <PUBCHEM_CACTVS_HBOND_ACCEPTOR>
1

> <PUBCHEM_CACTVS_HBOND_DONOR>
0

> <PUBCHEM_CACTVS_ROTATABLE_BOND>
0

> <PUBCHEM_CACTVS_SUBSKEYS>
AAADcQACAAAAAAAAAEAAAAAAAAAAAAAAAAAAAAAAAAAAAAAAAAAAAAAAAAAAAAAAAAAAAAAAAAAAAAAAAAAAAAAAAAAAAAAAAAAAAAAAAAAAAAAAAAAAAAAAAAAAAAAAAAAAAAAAAAAAAAAAAAAAAAAAAA==

> <PUBCHEM_IUPAC_OPENEYE_NAME>
nitridomolybdenum

> <PUBCHEM_IUPAC_CAS_NAME>
nitrilomolybdenum

> <PUBCHEM_IUPAC_NAME_MARKUP>
azanylidynemolybdenum

> <PUBCHEM_IUPAC_NAME>
azanylidynemolybdenum

> <PUBCHEM_IUPAC_SYSTEMATIC_NAME>
azanylidynemolybdenum

> <PUBCHEM_IUPAC_TRADITIONAL_NAME>
nitrilomolybdenum

> <PUBCHEM_IUPAC_INCHI>
InChI=1S/Mo.N

> <PUBCHEM_IUPAC_INCHIKEY>
GPBUGPUPKAGMDK-UHFFFAOYSA-N

> <PUBCHEM_EXACT_MASS>
111.908478

> <PUBCHEM_MOLECULAR_FORMULA>
MoN

> <PUBCHEM_MOLECULAR_WEIGHT>
109.96

> <PUBCHEM_SMILES>
N#[Mo]

> <PUBCHEM_CONNECTIVITY_SMILES>
N#[Mo]

> <PUBCHEM_CACTVS_TPSA>
23.8

> <PUBCHEM_MONOISOTOPIC_WEIGHT>
111.908478

> <PUBCHEM_TOTAL_CHARGE>
0

> <PUBCHEM_HEAVY_ATOM_COUNT>
2

> <PUBCHEM_ATOM_DEF_STEREO_COUNT>
0

> <PUBCHEM_ATOM_UDEF_STEREO_COUNT>
0

> <PUBCHEM_BOND_DEF_STEREO_COUNT>
0

> <PUBCHEM_BOND_UDEF_STEREO_COUNT>
0

> <PUBCHEM_ISOTOPIC_ATOM_COUNT>
0

> <PUBCHEM_COMPONENT_COUNT>
1

> <PUBCHEM_CACTVS_TAUTO_COUNT>
-1

> <PUBCHEM_COORDINATE_TYPE>
1
5
255

$$$$
