14802
  -OEChem-08152606202D

  4  3  0     0  0  0  0  0  0999 V2000
    2.8660    0.2500    0.0000 Mo  0  0  0  0  0  0  0  0  0  0  0  0
    3.7321    0.7500    0.0000 O   0  0  0  0  0  0  0  0  0  0  0  0
    2.0000    0.7500    0.0000 O   0  0  0  0  0  0  0  0  0  0  0  0
    2.8660   -0.7500    0.0000 O   0  0  0  0  0  0  0  0  0  0  0  0
  1  2  2  0  0  0  0
  1  3  2  0  0  0  0
  1  4  2  0  0  0  0
M  END
> <PUBCHEM_COMPOUND_CID>
14802

> <PUBCHEM_COMPOUND_CANONICALIZED>
1

> <PUBCHEM_CACTVS_COMPLEXITY>
61.8

> <PUBCHEM_CACTVS_HBOND_ACCEPTOR>
3

> <PUBCHEM_CACTVS_HBOND_DONOR>
0

> <PUBCHEM_CACTVS_ROTATABLE_BOND>
0

> <PUBCHEM_CACTVS_SUBSKEYS>
AAADcQAAMAAAAAAAAEAAAAAAAAAAAAAAAAAAAAAAAAAAAAAAAAAAAAAAAAAAAAAAAAAAAAAAAAAAAAAAAAAAAAAAAAAAAAAAAAAAAAAAAAAAAAAAAAAAAAAAAAAAAAAAAAAAAAAAAAAAAAAAAAAAAAAAAA==

> <PUBCHEM_IUPAC_OPENEYE_NAME>
trioxomolybdenum

> <PUBCHEM_IUPAC_CAS_NAME>
trioxomolybdenum

> <PUBCHEM_IUPAC_NAME_MARKUP>
trioxomolybdenum

> <PUBCHEM_IUPAC_NAME>
trioxomolybdenum

> <PUBCHEM_IUPAC_SYSTEMATIC_NAME>
tris(oxidanylidene)molybdenum

> <PUBCHEM_IUPAC_TRADITIONAL_NAME>
triketomolybdenum

> <PUBCHEM_IUPAC_INCHI>
InChI=1S/Mo.3O

> <PUBCHEM_IUPAC_INCHIKEY>
JKQOBWVOAYFWKG-UHFFFAOYSA-N

> <PUBCHEM_EXACT_MASS>
145.890147

> <PUBCHEM_MOLECULAR_FORMULA>
MoO3

> <PUBCHEM_MOLECULAR_WEIGHT>
143.95

> <PUBCHEM_SMILES>
O=[Mo](=O)=O

> <PUBCHEM_CONNECTIVITY_SMILES>
O=[Mo](=O)=O

> <PUBCHEM_CACTVS_TPSA>
51.2

> <PUBCHEM_MONOISOTOPIC_WEIGHT>
145.890147

> <PUBCHEM_TOTAL_CHARGE>
0

> <PUBCHEM_HEAVY_ATOM_COUNT>
4

> <PUBCHEM_ATOM_DEF_STEREO_COUNT>
0

> <PUBCHEM_ATOM_UDEF_STEREO_COUNT>
0

> <PUBCHEM_BOND_DEF_STEREO_COUNT>
0

> <PUBCHEM_BOND_UDEF_STEREO_COUNT>
0

> <PUBCHEM_ISOTOPIC_ATOM_COUNT>
0

> <PUBCHEM_COMPONENT_COUNT>
1

> <PUBCHEM_CACTVS_TAUTO_COUNT>
-1

> <PUBCHEM_COORDINATE_TYPE>
1
5
255

$$$$
