900
  -OEChem-08152603213D

 35 35  0     1  0  0  0  0  0999 V2000
    3.1685   -0.0815    0.2592 P   0  0  0  0  0  0  0  0  0  0  0  0
    0.1928    1.1461   -0.5504 O   0  0  0  0  0  0  0  0  0  0  0  0
   -2.9534   -0.8384    1.2870 O   0  0  0  0  0  0  0  0  0  0  0  0
    1.6827   -0.6136   -0.0855 O   0  0  0  0  0  0  0  0  0  0  0  0
   -3.0928    2.0118    0.8458 O   0  0  0  0  0  0  0  0  0  0  0  0
    0.0861    3.7799   -1.3266 O   0  0  0  0  0  0  0  0  0  0  0  0
   -0.5598   -3.6868    0.2458 O   0  0  0  0  0  0  0  0  0  0  0  0
    3.1490    0.1035    1.8657 O   0  0  0  0  0  0  0  0  0  0  0  0
    3.1372    1.4389   -0.2906 O   0  0  0  0  0  0  0  0  0  0  0  0
    4.2876   -0.9261   -0.2758 O   0  0  0  0  0  0  0  0  0  0  0  0
   -0.9473   -1.5390   -0.5623 N   0  0  0  0  0  0  0  0  0  0  0  0
   -0.6062   -0.8109    0.6455 C   0  0  2  0  0  0  0  0  0  0  0  0
   -1.8045   -0.0052    1.1597 C   0  0  1  0  0  0  0  0  0  0  0  0
   -2.1234    1.1682    0.2284 C   0  0  2  0  0  0  0  0  0  0  0  0
   -0.8580    1.9864   -0.0627 C   0  0  2  0  0  0  0  0  0  0  0  0
    0.5700    0.1380    0.3903 C   0  0  2  0  0  0  0  0  0  0  0  0
   -1.1145    3.0596   -1.1158 C   0  0  0  0  0  0  0  0  0  0  0  0
   -0.8924   -2.9169   -0.6515 C   0  0  0  0  0  0  0  0  0  0  0  0
   -1.3215   -3.4140   -2.0060 C   0  0  0  0  0  0  0  0  0  0  0  0
   -0.3163   -1.5477    1.4041 H   0  0  0  0  0  0  0  0  0  0  0  0
   -1.5871    0.3837    2.1627 H   0  0  0  0  0  0  0  0  0  0  0  0
   -2.5638    0.7952   -0.7044 H   0  0  0  0  0  0  0  0  0  0  0  0
   -0.5047    2.4843    0.8507 H   0  0  0  0  0  0  0  0  0  0  0  0
    0.8422    0.6289    1.3321 H   0  0  0  0  0  0  0  0  0  0  0  0
   -1.8980    3.7600   -0.8111 H   0  0  0  0  0  0  0  0  0  0  0  0
   -1.3964    2.6098   -2.0732 H   0  0  0  0  0  0  0  0  0  0  0  0
   -1.2305   -1.0031   -1.3778 H   0  0  0  0  0  0  0  0  0  0  0  0
   -2.7127   -1.5809    1.8669 H   0  0  0  0  0  0  0  0  0  0  0  0
   -3.8703    1.4630    1.0461 H   0  0  0  0  0  0  0  0  0  0  0  0
    0.3248    4.2090   -0.4872 H   0  0  0  0  0  0  0  0  0  0  0  0
   -1.1192   -4.4857   -2.0866 H   0  0  0  0  0  0  0  0  0  0  0  0
   -2.3931   -3.2400   -2.1372 H   0  0  0  0  0  0  0  0  0  0  0  0
   -0.7679   -2.8925   -2.7921 H   0  0  0  0  0  0  0  0  0  0  0  0
    3.9757    0.3669    2.3230 H   0  0  0  0  0  0  0  0  0  0  0  0
    3.9657    1.9639   -0.2820 H   0  0  0  0  0  0  0  0  0  0  0  0
  1  4  1  0  0  0  0
  1  8  1  0  0  0  0
  1  9  1  0  0  0  0
  1 10  2  0  0  0  0
  2 15  1  0  0  0  0
  2 16  1  0  0  0  0
  3 13  1  0  0  0  0
  3 28  1  0  0  0  0
  4 16  1  0  0  0  0
  5 14  1  0  0  0  0
  5 29  1  0  0  0  0
  6 17  1  0  0  0  0
  6 30  1  0  0  0  0
  7 18  2  0  0  0  0
  8 34  1  0  0  0  0
  9 35  1  0  0  0  0
 11 12  1  0  0  0  0
 11 18  1  0  0  0  0
 11 27  1  0  0  0  0
 12 13  1  0  0  0  0
 12 16  1  0  0  0  0
 12 20  1  0  0  0  0
 13 14  1  0  0  0  0
 13 21  1  0  0  0  0
 14 15  1  0  0  0  0
 14 22  1  0  0  0  0
 15 17  1  0  0  0  0
 15 23  1  0  0  0  0
 16 24  1  0  0  0  0
 17 25  1  0  0  0  0
 17 26  1  0  0  0  0
 18 19  1  0  0  0  0
 19 31  1  0  0  0  0
 19 32  1  0  0  0  0
 19 33  1  0  0  0  0
M  END
> <PUBCHEM_COMPOUND_CID>
900

> <PUBCHEM_CONFORMER_RMSD>
0.8

> <PUBCHEM_CONFORMER_DIVERSEORDER>
1
109
98
9
102
16
107
157
136
22
63
120
46
77
121
142
67
130
150
123
132
79
117
78
54
104
149
7
34
156
146
125
58
71
60
106
45
131
127
55
25
155
138
39
38
89
12
69
101
118
128
21
92
133
147
139
100
124
65
115
33
28
50
141
41
154
122
44
70
105
6
145
10
84
13
87
76
57
93
74
113
126
111
135
26
148
56
62
110
59
17
137
143
24
114
31
49
116
72
108
30
43
64
134
11
103
23
86
152
27
19
91
40
83
48
2
95
119
37
129
4
68
75
151
94
14
20
88
85
32
153
144
3
66
35
52
61
51
53
80
140
97
90
5
82
81
47
29
96
112
73
18
8
36
42
99
15

> <PUBCHEM_MMFF94_PARTIAL_CHARGES>
25
1 1.51
10 -0.7
11 -0.73
12 0.3
13 0.28
14 0.28
15 0.28
16 0.56
17 0.28
18 0.57
19 0.06
2 -0.56
27 0.37
28 0.4
29 0.4
3 -0.68
30 0.4
34 0.5
35 0.5
4 -0.55
5 -0.68
6 -0.68
7 -0.57
8 -0.77
9 -0.77

> <PUBCHEM_EFFECTIVE_ROTOR_COUNT>
6.2

> <PUBCHEM_PHARMACOPHORE_FEATURES>
14
1 10 acceptor
1 11 donor
1 2 acceptor
1 3 acceptor
1 3 donor
1 5 acceptor
1 5 donor
1 6 acceptor
1 6 donor
1 7 acceptor
1 8 acceptor
1 9 acceptor
4 1 8 9 10 anion
6 2 12 13 14 15 16 rings

> <PUBCHEM_HEAVY_ATOM_COUNT>
19

> <PUBCHEM_ATOM_DEF_STEREO_COUNT>
0

> <PUBCHEM_ATOM_UDEF_STEREO_COUNT>
5

> <PUBCHEM_BOND_DEF_STEREO_COUNT>
0

> <PUBCHEM_BOND_UDEF_STEREO_COUNT>
0

> <PUBCHEM_ISOTOPIC_ATOM_COUNT>
0

> <PUBCHEM_COMPONENT_COUNT>
1

> <PUBCHEM_CACTVS_TAUTO_COUNT>
2

> <PUBCHEM_CONFORMER_ID>
0000038400000001

> <PUBCHEM_MMFF94_ENERGY>
5.2241

> <PUBCHEM_FEATURE_SELFOVERLAP>
71.103

> <PUBCHEM_SHAPE_FINGERPRINT>
10756046 70 18123204656060208695
12553582 1 17835520797106462930
13004483 165 17983553476287106630
13681431 1 17474366450181669966
14648413 74 17184182843051941337
14943834 7 17763196030295308273
15309172 13 18269563749224788696
15490181 7 18196639705849330218
16945 1 18129942402642151393
20871998 184 18336836303187165681
21452121 199 17404842135187004722
21524375 3 18267018349741696682
22112679 90 17407983427222768099
22182313 1 17321565786547063373
23388829 49 17620192474055209008
23419403 2 16760508482919287657
23598291 2 17333680639052325371
2748010 2 18267040387498415023
3250762 1 17543640729528815427
5845 1 18044354231666830164
6338986 31 17767955803020786598
7364860 26 17549541803818388035
81228 2 18268412710980071874
84936 31 16906622162175144479
9862522 239 17974550421854602154

> <PUBCHEM_SHAPE_MULTIPOLES>
337.06
4.73
4.48
1.41
5.64
1.25
0.12
-0.48
-1.41
-2.85
2.87
-0.38
0.21
-0.46

> <PUBCHEM_SHAPE_SELFOVERLAP>
660.632

> <PUBCHEM_SHAPE_VOLUME>
202.4

> <PUBCHEM_COORDINATE_TYPE>
2
5
10

$$$$
