748
  -OEChem-08152603103D

 41 40  0     1  0  0  0  0  0999 V2000
   -1.9723    1.4848    0.7250 S   0  0  0  0  0  0  0  0  0  0  0  0
   -2.9602    3.2815    0.3032 S   0  0  0  0  0  0  0  0  0  0  0  0
    1.7948    0.3487   -2.1154 O   0  0  0  0  0  0  0  0  0  0  0  0
   -1.1287   -2.1892    0.6691 O   0  0  0  0  0  0  0  0  0  0  0  0
    5.0690   -0.9267    2.0913 O   0  0  0  0  0  0  0  0  0  0  0  0
    6.4161   -1.6187    0.4037 O   0  0  0  0  0  0  0  0  0  0  0  0
   -3.4172    3.8336    1.7672 O   0  0  0  0  0  0  0  0  0  0  0  0
   -1.9778    4.2030   -0.2345 O   0  0  0  0  0  0  0  0  0  0  0  0
   -4.1589    2.9540   -0.4444 O   0  0  0  0  0  0  0  0  0  0  0  0
   -4.5562   -1.1306    0.6773 O   0  0  0  0  0  0  0  0  0  0  0  0
   -5.5074   -3.1870    0.7967 O   0  0  0  0  0  0  0  0  0  0  0  0
    0.5509   -0.3080   -0.2670 N   0  0  0  0  0  0  0  0  0  0  0  0
   -2.6883   -1.8288   -1.0101 N   0  0  0  0  0  0  0  0  0  0  0  0
    6.5899    0.9885   -0.4736 N   0  0  0  0  0  0  0  0  0  0  0  0
   -0.7256   -0.4135   -0.9352 C   0  0  2  0  0  0  0  0  0  0  0  0
    4.2001    0.4987   -0.6835 C   0  0  0  0  0  0  0  0  0  0  0  0
    2.9056    0.0858    0.0200 C   0  0  0  0  0  0  0  0  0  0  0  0
    5.3942    0.5903    0.2731 C   0  0  1  0  0  0  0  0  0  0  0  0
   -1.4860    0.9150   -0.9366 C   0  0  0  0  0  0  0  0  0  0  0  0
    1.7141    0.0683   -0.9226 C   0  0  0  0  0  0  0  0  0  0  0  0
   -1.5155   -1.5651   -0.3170 C   0  0  0  0  0  0  0  0  0  0  0  0
    5.7023   -0.7569    0.9014 C   0  0  0  0  0  0  0  0  0  0  0  0
   -3.5944   -2.8886   -0.6336 C   0  0  0  0  0  0  0  0  0  0  0  0
   -4.6484   -2.4394    0.3455 C   0  0  0  0  0  0  0  0  0  0  0  0
   -0.5279   -0.6904   -1.9792 H   0  0  0  0  0  0  0  0  0  0  0  0
    4.0497    1.4701   -1.1732 H   0  0  0  0  0  0  0  0  0  0  0  0
    4.4121   -0.2236   -1.4839 H   0  0  0  0  0  0  0  0  0  0  0  0
    2.6854    0.7816    0.8381 H   0  0  0  0  0  0  0  0  0  0  0  0
    3.0008   -0.9207    0.4424 H   0  0  0  0  0  0  0  0  0  0  0  0
    5.2116    1.3277    1.0626 H   0  0  0  0  0  0  0  0  0  0  0  0
    0.5868   -0.4989    0.7306 H   0  0  0  0  0  0  0  0  0  0  0  0
   -0.8642    1.6964   -1.3877 H   0  0  0  0  0  0  0  0  0  0  0  0
   -2.3958    0.8384   -1.5403 H   0  0  0  0  0  0  0  0  0  0  0  0
   -2.9256   -1.2750   -1.8274 H   0  0  0  0  0  0  0  0  0  0  0  0
    6.4281    1.8899   -0.9213 H   0  0  0  0  0  0  0  0  0  0  0  0
    7.3651    1.1296    0.1735 H   0  0  0  0  0  0  0  0  0  0  0  0
   -3.0260   -3.7074   -0.1828 H   0  0  0  0  0  0  0  0  0  0  0  0
   -4.0896   -3.2309   -1.5465 H   0  0  0  0  0  0  0  0  0  0  0  0
    5.2612   -1.8042    2.4856 H   0  0  0  0  0  0  0  0  0  0  0  0
   -3.9078    4.6888    1.7615 H   0  0  0  0  0  0  0  0  0  0  0  0
   -5.2524   -0.8630    1.3144 H   0  0  0  0  0  0  0  0  0  0  0  0
  1  2  1  0  0  0  0
  1 19  1  0  0  0  0
  2  7  1  0  0  0  0
  2  8  2  0  0  0  0
  2  9  2  0  0  0  0
  3 20  2  0  0  0  0
  4 21  2  0  0  0  0
  5 22  1  0  0  0  0
  5 39  1  0  0  0  0
  6 22  2  0  0  0  0
  7 40  1  0  0  0  0
 10 24  1  0  0  0  0
 10 41  1  0  0  0  0
 11 24  2  0  0  0  0
 12 15  1  0  0  0  0
 12 20  1  0  0  0  0
 12 31  1  0  0  0  0
 13 21  1  0  0  0  0
 13 23  1  0  0  0  0
 13 34  1  0  0  0  0
 14 18  1  0  0  0  0
 14 35  1  0  0  0  0
 14 36  1  0  0  0  0
 15 19  1  0  0  0  0
 15 21  1  0  0  0  0
 15 25  1  0  0  0  0
 16 17  1  0  0  0  0
 16 18  1  0  0  0  0
 16 26  1  0  0  0  0
 16 27  1  0  0  0  0
 17 20  1  0  0  0  0
 17 28  1  0  0  0  0
 17 29  1  0  0  0  0
 18 22  1  0  0  0  0
 18 30  1  0  0  0  0
 19 32  1  0  0  0  0
 19 33  1  0  0  0  0
 23 24  1  0  0  0  0
 23 37  1  0  0  0  0
 23 38  1  0  0  0  0
M  END
> <PUBCHEM_COMPOUND_CID>
748

> <PUBCHEM_CONFORMER_RMSD>
1

> <PUBCHEM_CONFORMER_DIVERSEORDER>
1
76
38
21
66
68
124
62
49
64
63
102
80
16
125
53
19
55
31
57
42
47
51
90
67
26
44
105
132
82
54
12
100
133
52
59
69
99
111
45
115
61
35
50
122
87
40
110
3
22
58
15
27
131
33
60
71
109
81
116
75
74
77
9
94
18
41
30
24
103
46
123
120
25
65
14
89
98
4
85
39
79
107
95
29
84
104
10
48
108
11
28
118
8
72
13
119
91
32
36
127
129
93
73
17
2
56
78
20
37
6
117
92
114
88
126
113
121
70
106
101
86
96
5
43
34
112
128
97
7
23
130
83

> <PUBCHEM_MMFF94_PARTIAL_CHARGES>
30
1 -0.35
10 -0.65
11 -0.57
12 -0.73
13 -0.73
14 -0.99
15 0.36
17 0.06
18 0.33
19 0.23
2 1.6
20 0.57
21 0.57
22 0.66
23 0.36
24 0.66
3 -0.57
31 0.37
34 0.37
35 0.36
36 0.36
39 0.5
4 -0.57
40 0.5
41 0.5
5 -0.65
6 -0.57
7 -0.68
8 -0.65
9 -0.65

> <PUBCHEM_EFFECTIVE_ROTOR_COUNT>
13

> <PUBCHEM_PHARMACOPHORE_FEATURES>
16
1 10 acceptor
1 11 acceptor
1 12 donor
1 13 donor
1 14 cation
1 14 donor
1 3 acceptor
1 4 acceptor
1 5 acceptor
1 6 acceptor
1 7 acceptor
1 8 acceptor
1 9 acceptor
3 10 11 24 anion
3 5 6 22 anion
4 2 7 8 9 anion

> <PUBCHEM_HEAVY_ATOM_COUNT>
24

> <PUBCHEM_ATOM_DEF_STEREO_COUNT>
0

> <PUBCHEM_ATOM_UDEF_STEREO_COUNT>
2

> <PUBCHEM_BOND_DEF_STEREO_COUNT>
0

> <PUBCHEM_BOND_UDEF_STEREO_COUNT>
0

> <PUBCHEM_ISOTOPIC_ATOM_COUNT>
0

> <PUBCHEM_COMPONENT_COUNT>
1

> <PUBCHEM_CACTVS_TAUTO_COUNT>
4

> <PUBCHEM_CONFORMER_ID>
000002EC00000001

> <PUBCHEM_MMFF94_ENERGY>
28.9922

> <PUBCHEM_FEATURE_SELFOVERLAP>
81.381

> <PUBCHEM_SHAPE_FINGERPRINT>
12107183 9 18048308952202247906
12596602 18 18333729135336066512
12788726 201 18264787612552976719
12930653 34 18342740671943819934
13004483 165 18268994365747773111
13073987 5 18410285927013223242
13540713 4 17845110479603991534
13583140 156 17631999885145645966
14178342 30 18410015394911888070
22182313 1 17489041374295421876
23402539 116 18341047531627479047
23522609 53 17823722789023335564
25147074 1 17968392220457506628
2838139 119 16843585099429750832
4409770 3 18410567384804796767
5104073 3 18336814330988911728
59755656 520 18264765463317187852
7226269 152 18409447020683816271
9981440 41 17631724946475923743

> <PUBCHEM_SHAPE_MULTIPOLES>
433.84
14.56
4.43
1.35
21.79
3.67
0.11
-5.18
4.38
-10.46
1.08
0.57
0.12
-1.14

> <PUBCHEM_SHAPE_SELFOVERLAP>
827.651

> <PUBCHEM_SHAPE_VOLUME>
265.4

> <PUBCHEM_COORDINATE_TYPE>
2
5
10

$$$$
