166940
  -OEChem-08152606552D

  4  0  0     0  0  0  0  0  0999 V2000
    2.5369   -0.1550    0.0000 Nd  0  1  0  0  0  0  0  0  0  0  0  0
    2.0000   -0.4650    0.0000 H   0  5  0  0  0  0  0  0  0  0  0  0
    3.0739   -0.4650    0.0000 H   0  5  0  0  0  0  0  0  0  0  0  0
    2.5369    0.4650    0.0000 H   0  5  0  0  0  0  0  0  0  0  0  0
M  CHG  4   1   3   2  -1   3  -1   4  -1
M  END
> <PUBCHEM_COMPOUND_CID>
166940

> <PUBCHEM_COMPOUND_CANONICALIZED>
1

> <PUBCHEM_CACTVS_COMPLEXITY>
0

> <PUBCHEM_CACTVS_HBOND_ACCEPTOR>
3

> <PUBCHEM_CACTVS_HBOND_DONOR>
0

> <PUBCHEM_CACTVS_ROTATABLE_BOND>
0

> <PUBCHEM_CACTVS_SUBSKEYS>
AAADcQAAAAAAAAAAAAAAAAIAAAAAAAAAAAAAAAAAAAAAAAAAAAAAAAAAAAAAAAAAAAAAAAAAAAAAAAAAAAAAAAAAAAAAAAAAAAAAAAAAAAAAAAAAAAAAAAAAAAAAAAAAAAAAAAAAAAAAAAAAAAAAAAAAAA==

> <PUBCHEM_IUPAC_OPENEYE_NAME>
hydride;neodymium(3+)

> <PUBCHEM_IUPAC_CAS_NAME>
hydride;neodymium(3+)

> <PUBCHEM_IUPAC_NAME_MARKUP>
hydride;neodymium(3+)

> <PUBCHEM_IUPAC_NAME>
hydride;neodymium(3+)

> <PUBCHEM_IUPAC_SYSTEMATIC_NAME>
hydride;neodymium(3+)

> <PUBCHEM_IUPAC_TRADITIONAL_NAME>
hydride;neodymium(3+)

> <PUBCHEM_IUPAC_INCHI>
InChI=1S/Nd.3H/q+3;3*-1

> <PUBCHEM_IUPAC_INCHIKEY>
LKHCVNZUWDNGFE-UHFFFAOYSA-N

> <PUBCHEM_EXACT_MASS>
144.93120

> <PUBCHEM_MOLECULAR_FORMULA>
H3Nd

> <PUBCHEM_MOLECULAR_WEIGHT>
147.27

> <PUBCHEM_SMILES>
[H-].[H-].[H-].[Nd+3]

> <PUBCHEM_CONNECTIVITY_SMILES>
[H-].[H-].[H-].[Nd+3]

> <PUBCHEM_CACTVS_TPSA>
0

> <PUBCHEM_MONOISOTOPIC_WEIGHT>
144.93120

> <PUBCHEM_TOTAL_CHARGE>
0

> <PUBCHEM_HEAVY_ATOM_COUNT>
1

> <PUBCHEM_ATOM_DEF_STEREO_COUNT>
0

> <PUBCHEM_ATOM_UDEF_STEREO_COUNT>
0

> <PUBCHEM_BOND_DEF_STEREO_COUNT>
0

> <PUBCHEM_BOND_UDEF_STEREO_COUNT>
0

> <PUBCHEM_ISOTOPIC_ATOM_COUNT>
0

> <PUBCHEM_COMPONENT_COUNT>
4

> <PUBCHEM_CACTVS_TAUTO_COUNT>
-1

> <PUBCHEM_COORDINATE_TYPE>
1
5
255

$$$$
