11037574
  -OEChem-08152607282D

 46 42  0     0  0  0  0  0  0999 V2000
    6.0000   -1.1340    0.0000 Nd  0  0  0  0  0  0  0  0  0  0  0  0
    6.0000   -0.1340    0.0000 O   0  0  0  0  0  0  0  0  0  0  0  0
    5.0000   -1.1340    0.0000 O   0  0  0  0  0  0  0  0  0  0  0  0
    7.0000   -1.1340    0.0000 O   0  0  0  0  0  0  0  0  0  0  0  0
    5.1340    1.3660    0.0000 O   0  0  0  0  0  0  0  0  0  0  0  0
    3.5000   -0.2679    0.0000 O   0  0  0  0  0  0  0  0  0  0  0  0
    8.5000   -0.2679    0.0000 O   0  0  0  0  0  0  0  0  0  0  0  0
    6.8660    0.3660    0.0000 C   0  0  0  0  0  0  0  0  0  0  0  0
    4.5000   -2.0000    0.0000 C   0  0  0  0  0  0  0  0  0  0  0  0
    7.5000   -2.0000    0.0000 C   0  0  0  0  0  0  0  0  0  0  0  0
    7.7320   -0.1340    0.0000 C   0  0  0  0  0  0  0  0  0  0  0  0
    5.0000   -2.8660    0.0000 C   0  0  0  0  0  0  0  0  0  0  0  0
    7.0000   -2.8660    0.0000 C   0  0  0  0  0  0  0  0  0  0  0  0
    6.8660    1.3660    0.0000 C   0  0  0  0  0  0  0  0  0  0  0  0
    3.5000   -2.0000    0.0000 C   0  0  0  0  0  0  0  0  0  0  0  0
    8.5000   -2.0000    0.0000 C   0  0  0  0  0  0  0  0  0  0  0  0
    6.0000    1.8660    0.0000 C   0  0  0  0  0  0  0  0  0  0  0  0
    3.0000   -1.1340    0.0000 C   0  0  0  0  0  0  0  0  0  0  0  0
    9.0000   -1.1340    0.0000 C   0  0  0  0  0  0  0  0  0  0  0  0
    6.0000    2.8660    0.0000 C   0  0  0  0  0  0  0  0  0  0  0  0
    2.0000   -1.1340    0.0000 C   0  0  0  0  0  0  0  0  0  0  0  0
   10.0000   -1.1340    0.0000 C   0  0  0  0  0  0  0  0  0  0  0  0
    5.4631    0.1760    0.0000 H   0  0  0  0  0  0  0  0  0  0  0  0
    4.6900   -0.5970    0.0000 H   0  0  0  0  0  0  0  0  0  0  0  0
    7.3100   -0.5970    0.0000 H   0  0  0  0  0  0  0  0  0  0  0  0
    7.4220   -0.6709    0.0000 H   0  0  0  0  0  0  0  0  0  0  0  0
    8.2690   -0.4440    0.0000 H   0  0  0  0  0  0  0  0  0  0  0  0
    8.0420    0.4030    0.0000 H   0  0  0  0  0  0  0  0  0  0  0  0
    4.4631   -3.1760    0.0000 H   0  0  0  0  0  0  0  0  0  0  0  0
    5.3100   -3.4030    0.0000 H   0  0  0  0  0  0  0  0  0  0  0  0
    5.5369   -2.5560    0.0000 H   0  0  0  0  0  0  0  0  0  0  0  0
    6.4631   -2.5560    0.0000 H   0  0  0  0  0  0  0  0  0  0  0  0
    6.6900   -3.4030    0.0000 H   0  0  0  0  0  0  0  0  0  0  0  0
    7.5369   -3.1760    0.0000 H   0  0  0  0  0  0  0  0  0  0  0  0
    7.4030    1.6760    0.0000 H   0  0  0  0  0  0  0  0  0  0  0  0
    3.1900   -2.5369    0.0000 H   0  0  0  0  0  0  0  0  0  0  0  0
    8.8100   -2.5369    0.0000 H   0  0  0  0  0  0  0  0  0  0  0  0
    6.6200    2.8660    0.0000 H   0  0  0  0  0  0  0  0  0  0  0  0
    6.0000    3.4860    0.0000 H   0  0  0  0  0  0  0  0  0  0  0  0
    5.3800    2.8660    0.0000 H   0  0  0  0  0  0  0  0  0  0  0  0
    2.0000   -0.5140    0.0000 H   0  0  0  0  0  0  0  0  0  0  0  0
    1.3800   -1.1340    0.0000 H   0  0  0  0  0  0  0  0  0  0  0  0
    2.0000   -1.7540    0.0000 H   0  0  0  0  0  0  0  0  0  0  0  0
   10.0000   -1.7540    0.0000 H   0  0  0  0  0  0  0  0  0  0  0  0
   10.6200   -1.1340    0.0000 H   0  0  0  0  0  0  0  0  0  0  0  0
   10.0000   -0.5140    0.0000 H   0  0  0  0  0  0  0  0  0  0  0  0
  2  8  1  0  0  0  0
  2 23  1  0  0  0  0
  3  9  1  0  0  0  0
  3 24  1  0  0  0  0
  4 10  1  0  0  0  0
  4 25  1  0  0  0  0
  5 17  2  0  0  0  0
  6 18  2  0  0  0  0
  7 19  2  0  0  0  0
  8 11  1  0  0  0  0
  8 14  2  0  0  0  0
  9 12  1  0  0  0  0
  9 15  2  0  0  0  0
 10 13  1  0  0  0  0
 10 16  2  0  0  0  0
 11 26  1  0  0  0  0
 11 27  1  0  0  0  0
 11 28  1  0  0  0  0
 12 29  1  0  0  0  0
 12 30  1  0  0  0  0
 12 31  1  0  0  0  0
 13 32  1  0  0  0  0
 13 33  1  0  0  0  0
 13 34  1  0  0  0  0
 14 17  1  0  0  0  0
 14 35  1  0  0  0  0
 15 18  1  0  0  0  0
 15 36  1  0  0  0  0
 16 19  1  0  0  0  0
 16 37  1  0  0  0  0
 17 20  1  0  0  0  0
 18 21  1  0  0  0  0
 19 22  1  0  0  0  0
 20 38  1  0  0  0  0
 20 39  1  0  0  0  0
 20 40  1  0  0  0  0
 21 41  1  0  0  0  0
 21 42  1  0  0  0  0
 21 43  1  0  0  0  0
 22 44  1  0  0  0  0
 22 45  1  0  0  0  0
 22 46  1  0  0  0  0
M  END
> <PUBCHEM_COMPOUND_CID>
11037574

> <PUBCHEM_COMPOUND_CANONICALIZED>
1

> <PUBCHEM_CACTVS_COMPLEXITY>
380

> <PUBCHEM_CACTVS_HBOND_ACCEPTOR>
6

> <PUBCHEM_CACTVS_HBOND_DONOR>
3

> <PUBCHEM_CACTVS_ROTATABLE_BOND>
3

> <PUBCHEM_CACTVS_SUBSKEYS>
AAADceBwOAAAAAAAAAAAAAIAAAAAAAAAAAAAAAAAAAAAAAAAAAAAGgAACAAACASAgAACAAAAAgCIAKBSAAAAAAAgIAAACAAAAEgAAAAAAQAAAAAAAAAIAQIAAAAAAAAAAAAAAAAAAAAAAAAAAAAAAAAAAA==

> <PUBCHEM_IUPAC_OPENEYE_NAME>
tris((Z)-4-hydroxypent-3-en-2-one);neodymium

> <PUBCHEM_IUPAC_CAS_NAME>
tris((Z)-4-hydroxy-3-penten-2-one);neodymium

> <PUBCHEM_IUPAC_NAME_MARKUP>
tris((<I>Z</I>)-4-hydroxypent-3-en-2-one);neodymium

> <PUBCHEM_IUPAC_NAME>
tris((Z)-4-hydroxypent-3-en-2-one);neodymium

> <PUBCHEM_IUPAC_SYSTEMATIC_NAME>
neodymium;tris((Z)-4-oxidanylpent-3-en-2-one)

> <PUBCHEM_IUPAC_TRADITIONAL_NAME>
tris((Z)-4-hydroxypent-3-en-2-one);neodymium

> <PUBCHEM_IUPAC_INCHI>
InChI=1S/3C5H8O2.Nd/c3*1-4(6)3-5(2)7;/h3*3,6H,1-2H3;/b3*4-3-;

> <PUBCHEM_IUPAC_INCHIKEY>
RYDWICWJLUJNOP-LNTINUHCSA-N

> <PUBCHEM_EXACT_MASS>
442.06502

> <PUBCHEM_MOLECULAR_FORMULA>
C15H24NdO6

> <PUBCHEM_MOLECULAR_WEIGHT>
444.59

> <PUBCHEM_SMILES>
C/C(=C/C(=O)C)/O.C/C(=C/C(=O)C)/O.C/C(=C/C(=O)C)/O.[Nd]

> <PUBCHEM_CONNECTIVITY_SMILES>
CC(=CC(=O)C)O.CC(=CC(=O)C)O.CC(=CC(=O)C)O.[Nd]

> <PUBCHEM_CACTVS_TPSA>
112

> <PUBCHEM_MONOISOTOPIC_WEIGHT>
442.06502

> <PUBCHEM_TOTAL_CHARGE>
0

> <PUBCHEM_HEAVY_ATOM_COUNT>
22

> <PUBCHEM_ATOM_DEF_STEREO_COUNT>
0

> <PUBCHEM_ATOM_UDEF_STEREO_COUNT>
0

> <PUBCHEM_BOND_DEF_STEREO_COUNT>
3

> <PUBCHEM_BOND_UDEF_STEREO_COUNT>
0

> <PUBCHEM_ISOTOPIC_ATOM_COUNT>
0

> <PUBCHEM_COMPONENT_COUNT>
4

> <PUBCHEM_CACTVS_TAUTO_COUNT>
-1

> <PUBCHEM_NONSTANDARDBOND>
1  2  6
1  3  6
1  4  6

> <PUBCHEM_COORDINATE_TYPE>
1
5
255

$$$$
