173582470
  -OEChem-08152605272D

 17 12  0     0  0  0  0  0  0999 V2000
    9.7942   -0.0000    0.0000 W   0  0  0  0  0  0  0  0  0  0  0  0
    6.3301    0.0000    0.0000 W   0  0  0  0  0  0  0  0  0  0  0  0
    2.8660   -0.0000    0.0000 W   0  0  0  0  0  0  0  0  0  0  0  0
    8.0622    0.0000    0.0000 Nd  0  1  0  0  0  0  0  0  0  0  0  0
    4.5981   -0.0000    0.0000 Nd  0  1  0  0  0  0  0  0  0  0  0  0
    8.9282    0.5000    0.0000 O   0  5  0  0  0  0  0  0  0  0  0  0
    8.0622   -1.0000    0.0000 O   0  5  0  0  0  0  0  0  0  0  0  0
    7.1962    0.5000    0.0000 O   0  5  0  0  0  0  0  0  0  0  0  0
    5.4641   -0.5000    0.0000 O   0  5  0  0  0  0  0  0  0  0  0  0
    3.7321   -0.5000    0.0000 O   0  5  0  0  0  0  0  0  0  0  0  0
    4.5981    1.0000    0.0000 O   0  5  0  0  0  0  0  0  0  0  0  0
   10.6603   -0.5000    0.0000 O   0  0  0  0  0  0  0  0  0  0  0  0
   10.2942    0.8660    0.0000 O   0  0  0  0  0  0  0  0  0  0  0  0
    5.8301    0.8660    0.0000 O   0  0  0  0  0  0  0  0  0  0  0  0
    6.8301   -0.8660    0.0000 O   0  0  0  0  0  0  0  0  0  0  0  0
    2.0000    0.5000    0.0000 O   0  0  0  0  0  0  0  0  0  0  0  0
    2.3660   -0.8660    0.0000 O   0  0  0  0  0  0  0  0  0  0  0  0
  1  6  1  0  0  0  0
  1  7  1  0  0  0  0
  1 12  2  0  0  0  0
  1 13  2  0  0  0  0
  2  8  1  0  0  0  0
  2  9  1  0  0  0  0
  2 14  2  0  0  0  0
  2 15  2  0  0  0  0
  3 10  1  0  0  0  0
  3 11  1  0  0  0  0
  3 16  2  0  0  0  0
  3 17  2  0  0  0  0
M  CHG  8   4   3   5   3   6  -1   7  -1   8  -1   9  -1  10  -1  11  -1
M  END
> <PUBCHEM_COMPOUND_CID>
173582470

> <PUBCHEM_COMPOUND_CANONICALIZED>
1

> <PUBCHEM_CACTVS_COMPLEXITY>
62.2

> <PUBCHEM_CACTVS_HBOND_ACCEPTOR>
12

> <PUBCHEM_CACTVS_HBOND_DONOR>
0

> <PUBCHEM_CACTVS_ROTATABLE_BOND>
0

> <PUBCHEM_CACTVS_SUBSKEYS>
AAADcQAAPAAAAAAAAAAAQAIAAAAAAAAAAAAAAAAAAAAAAAAAAAAAAAAAAAAAAAAAAAAAAAAAAAAAAAAAAAAAAAAAAAAAAAAAAAAAAAAAAAAAAAAAAAAAAAAAAAAAAAAAAAAAAAAAAAAAAAAAAAAAAAAAAA==

> <PUBCHEM_IUPAC_OPENEYE_NAME>
tris(dioxido(dioxo)tungsten);bis(neodymium(3+))

> <PUBCHEM_IUPAC_CAS_NAME>
tris(dioxido(dioxo)tungsten);bis(neodymium(3+))

> <PUBCHEM_IUPAC_NAME_MARKUP>
tris(dioxido(dioxo)tungsten);bis(neodymium(3+))

> <PUBCHEM_IUPAC_NAME>
tris(dioxido(dioxo)tungsten);bis(neodymium(3+))

> <PUBCHEM_IUPAC_SYSTEMATIC_NAME>
tris(bis(oxidanidyl)-bis(oxidanylidene)tungsten);bis(neodymium(3+))

> <PUBCHEM_IUPAC_TRADITIONAL_NAME>
tris(diketo(dioxido)tungsten);bis(neodymium(3+))

> <PUBCHEM_IUPAC_INCHI>
InChI=1S/2Nd.12O.3W/q2*+3;;;;;;;6*-1;;;

> <PUBCHEM_IUPAC_INCHIKEY>
NRWYFAZVZJQMEC-UHFFFAOYSA-N

> <PUBCHEM_EXACT_MASS>
1029.61030

> <PUBCHEM_MOLECULAR_FORMULA>
Nd2O12W3

> <PUBCHEM_MOLECULAR_WEIGHT>
1032.0

> <PUBCHEM_SMILES>
[O-][W](=O)(=O)[O-].[O-][W](=O)(=O)[O-].[O-][W](=O)(=O)[O-].[Nd+3].[Nd+3]

> <PUBCHEM_CONNECTIVITY_SMILES>
[O-][W](=O)(=O)[O-].[O-][W](=O)(=O)[O-].[O-][W](=O)(=O)[O-].[Nd+3].[Nd+3]

> <PUBCHEM_CACTVS_TPSA>
241

> <PUBCHEM_MONOISOTOPIC_WEIGHT>
1027.60723

> <PUBCHEM_TOTAL_CHARGE>
0

> <PUBCHEM_HEAVY_ATOM_COUNT>
17

> <PUBCHEM_ATOM_DEF_STEREO_COUNT>
0

> <PUBCHEM_ATOM_UDEF_STEREO_COUNT>
0

> <PUBCHEM_BOND_DEF_STEREO_COUNT>
0

> <PUBCHEM_BOND_UDEF_STEREO_COUNT>
0

> <PUBCHEM_ISOTOPIC_ATOM_COUNT>
0

> <PUBCHEM_COMPONENT_COUNT>
5

> <PUBCHEM_CACTVS_TAUTO_COUNT>
-1

> <PUBCHEM_COORDINATE_TYPE>
1
5
255

$$$$
