117628
  -OEChem-08152606402D

  2  1  0     0  0  0  0  0  0999 V2000
    3.0000    0.0000    0.0000 Nd  0  0  0  0  0  0  0  0  0  0  0  0
    2.0000    0.0000    0.0000 N   0  0  0  0  0  0  0  0  0  0  0  0
  1  2  3  0  0  0  0
M  END
> <PUBCHEM_COMPOUND_CID>
117628

> <PUBCHEM_COMPOUND_CANONICALIZED>
1

> <PUBCHEM_CACTVS_COMPLEXITY>
10

> <PUBCHEM_CACTVS_HBOND_ACCEPTOR>
1

> <PUBCHEM_CACTVS_HBOND_DONOR>
0

> <PUBCHEM_CACTVS_ROTATABLE_BOND>
0

> <PUBCHEM_CACTVS_SUBSKEYS>
AAADcQACAAAAAAAAAAAAAAIAAAAAAAAAAAAAAAAAAAAAAAAAAAAAAAAAAAAAAAAAAAAAAAAAAAAAAAAAAAAAAAAAAAAAAAAAAAAAAAAAAAAAAAAAAAAAAAAAAAAAAAAAAAAAAAAAAAAAAAAAAAAAAAAAAA==

> <PUBCHEM_IUPAC_OPENEYE_NAME>
nitridoneodymium

> <PUBCHEM_IUPAC_CAS_NAME>
nitriloneodymium

> <PUBCHEM_IUPAC_NAME_MARKUP>
azanylidyneneodymium

> <PUBCHEM_IUPAC_NAME>
azanylidyneneodymium

> <PUBCHEM_IUPAC_SYSTEMATIC_NAME>
azanylidyneneodymium

> <PUBCHEM_IUPAC_TRADITIONAL_NAME>
nitriloneodymium

> <PUBCHEM_IUPAC_INCHI>
InChI=1S/N.Nd

> <PUBCHEM_IUPAC_INCHIKEY>
OVMJQLNJCSIJCH-UHFFFAOYSA-N

> <PUBCHEM_EXACT_MASS>
155.91080

> <PUBCHEM_MOLECULAR_FORMULA>
NNd

> <PUBCHEM_MOLECULAR_WEIGHT>
158.25

> <PUBCHEM_SMILES>
N#[Nd]

> <PUBCHEM_CONNECTIVITY_SMILES>
N#[Nd]

> <PUBCHEM_CACTVS_TPSA>
23.8

> <PUBCHEM_MONOISOTOPIC_WEIGHT>
155.91080

> <PUBCHEM_TOTAL_CHARGE>
0

> <PUBCHEM_HEAVY_ATOM_COUNT>
2

> <PUBCHEM_ATOM_DEF_STEREO_COUNT>
0

> <PUBCHEM_ATOM_UDEF_STEREO_COUNT>
0

> <PUBCHEM_BOND_DEF_STEREO_COUNT>
0

> <PUBCHEM_BOND_UDEF_STEREO_COUNT>
0

> <PUBCHEM_ISOTOPIC_ATOM_COUNT>
0

> <PUBCHEM_COMPONENT_COUNT>
1

> <PUBCHEM_CACTVS_TAUTO_COUNT>
-1

> <PUBCHEM_COORDINATE_TYPE>
1
5
255

$$$$
