44148103
  -OEChem-08152607382D

  3  0  0     0  0  0  0  0  0999 V2000
    2.5000    2.5000    0.0000 Np  0  0  0  0  0  0  0  0  0  0  0  0
    0.0000    1.2500    0.0000 O   0  6  0  0  0  0  0  0  0  0  0  0
    2.5000    0.0000    0.0000 O   0  6  0  0  0  0  0  0  0  0  0  0
M  CHG  2   2  -2   3  -2
M  END
> <PUBCHEM_COMPOUND_CID>
44148103

> <PUBCHEM_COMPOUND_CANONICALIZED>
1

> <PUBCHEM_CACTVS_COMPLEXITY>
0

> <PUBCHEM_CACTVS_HBOND_ACCEPTOR>
2

> <PUBCHEM_CACTVS_HBOND_DONOR>
0

> <PUBCHEM_CACTVS_ROTATABLE_BOND>
0

> <PUBCHEM_CACTVS_SUBSKEYS>
AAADcQAAMAAAAAAAAAAAAAAAAAAAAAAAAAAAAAAAAAAAAAAAAAAAAAAAAAAAAAAAAAAAAAAAAAAAAAAAAAAAAAAAAAAAAAAAAAAAAAAAAAAAAAAAAAAAAAAAAAAAAAAAAAAAAAAAAAAAAAAAAAAAAAAAAA==

> <PUBCHEM_IUPAC_OPENEYE_NAME>
neptunium;bis(oxygen(2-))

> <PUBCHEM_IUPAC_CAS_NAME>
neptunium;bis(oxygen(2-))

> <PUBCHEM_IUPAC_NAME_MARKUP>
neptunium;bis(oxygen(2-))

> <PUBCHEM_IUPAC_NAME>
neptunium;bis(oxygen(2-))

> <PUBCHEM_IUPAC_SYSTEMATIC_NAME>
neptunium;bis(oxygen(2-))

> <PUBCHEM_IUPAC_TRADITIONAL_NAME>
neptunium;bis(oxygen(2-))

> <PUBCHEM_IUPAC_INCHI>
InChI=1S/Np.2O/q;2*-2

> <PUBCHEM_IUPAC_INCHIKEY>
SNNVUPQQESFYHH-UHFFFAOYSA-N

> <PUBCHEM_EXACT_MASS>
269.03800

> <PUBCHEM_MOLECULAR_FORMULA>
NpO2-4

> <PUBCHEM_MOLECULAR_WEIGHT>
269.047

> <PUBCHEM_SMILES>
[O-2].[O-2].[Np]

> <PUBCHEM_CONNECTIVITY_SMILES>
[O-2].[O-2].[Np]

> <PUBCHEM_CACTVS_TPSA>
2

> <PUBCHEM_MONOISOTOPIC_WEIGHT>
269.03800

> <PUBCHEM_TOTAL_CHARGE>
-4

> <PUBCHEM_HEAVY_ATOM_COUNT>
3

> <PUBCHEM_ATOM_DEF_STEREO_COUNT>
0

> <PUBCHEM_ATOM_UDEF_STEREO_COUNT>
0

> <PUBCHEM_BOND_DEF_STEREO_COUNT>
0

> <PUBCHEM_BOND_UDEF_STEREO_COUNT>
0

> <PUBCHEM_ISOTOPIC_ATOM_COUNT>
0

> <PUBCHEM_COMPONENT_COUNT>
3

> <PUBCHEM_CACTVS_TAUTO_COUNT>
-1

> <PUBCHEM_COORDINATE_TYPE>
1
5
255

$$$$
