179931
  -OEChem-08152605502D

  2  0  0     0  0  0  0  0  0999 V2000
    2.0000    0.0000    0.0000 Ni  0  2  0  0  0  0  0  0  0  0  0  0
    3.0000    0.0000    0.0000 O   0  6  0  0  0  0  0  0  0  0  0  0
M  CHG  2   1   2   2  -2
M  END
> <PUBCHEM_COMPOUND_CID>
179931

> <PUBCHEM_COMPOUND_CANONICALIZED>
1

> <PUBCHEM_CACTVS_COMPLEXITY>
0

> <PUBCHEM_CACTVS_HBOND_ACCEPTOR>
1

> <PUBCHEM_CACTVS_HBOND_DONOR>
0

> <PUBCHEM_CACTVS_ROTATABLE_BOND>
0

> <PUBCHEM_CACTVS_SUBSKEYS>
AAADcQAAIAAAAAAIAAAAAAAAAAAAAAAAAAAAAAAAAAAAAAAAAAAAAAAAAAAAAAAAAAAAAAAAAAAAAAAAAAAAAAAAAAAAAAAAAAAAAAAAAAAAAAAAAAAAAAAAAAAAAAAAAAAAAAAAAAAAAAAAAAAAAAAAAA==

> <PUBCHEM_IUPAC_OPENEYE_NAME>
nickelous oxygen(2-)

> <PUBCHEM_IUPAC_CAS_NAME>
nickel(2+);oxygen(2-)

> <PUBCHEM_IUPAC_NAME_MARKUP>
nickel(2+);oxygen(2-)

> <PUBCHEM_IUPAC_NAME>
nickel(2+);oxygen(2-)

> <PUBCHEM_IUPAC_SYSTEMATIC_NAME>
nickel(2+);oxygen(2-)

> <PUBCHEM_IUPAC_TRADITIONAL_NAME>
nickelous oxygen(2-)

> <PUBCHEM_IUPAC_INCHI>
InChI=1S/Ni.O/q+2;-2

> <PUBCHEM_IUPAC_INCHIKEY>
KVAWBJDCAFOHRG-UHFFFAOYSA-N

> <PUBCHEM_EXACT_MASS>
73.930256

> <PUBCHEM_MOLECULAR_FORMULA>
NiO

> <PUBCHEM_MOLECULAR_WEIGHT>
74.693

> <PUBCHEM_SMILES>
[O-2].[Ni+2]

> <PUBCHEM_CONNECTIVITY_SMILES>
[O-2].[Ni+2]

> <PUBCHEM_CACTVS_TPSA>
1

> <PUBCHEM_MONOISOTOPIC_WEIGHT>
73.930256

> <PUBCHEM_TOTAL_CHARGE>
0

> <PUBCHEM_HEAVY_ATOM_COUNT>
2

> <PUBCHEM_ATOM_DEF_STEREO_COUNT>
0

> <PUBCHEM_ATOM_UDEF_STEREO_COUNT>
0

> <PUBCHEM_BOND_DEF_STEREO_COUNT>
0

> <PUBCHEM_BOND_UDEF_STEREO_COUNT>
0

> <PUBCHEM_ISOTOPIC_ATOM_COUNT>
0

> <PUBCHEM_COMPONENT_COUNT>
2

> <PUBCHEM_CACTVS_TAUTO_COUNT>
-1

> <PUBCHEM_COORDINATE_TYPE>
1
5
255

$$$$
