25199732
  -OEChem-08152604292D

  5  2  0     0  0  0  0  0  0999 V2000
    2.5000    0.0000    0.0000 Ni  0  0  0  0  0  0  0  0  0  0  0  0
    2.5000    2.5000    0.0000 Ni  0  0  0  0  0  0  0  0  0  0  0  0
    0.0000    1.2500    0.0000 Ni  0  0  0  0  0  0  0  0  0  0  0  0
    3.5000    0.0000    0.0000 S   0  0  0  0  0  0  0  0  0  0  0  0
    3.5000    2.5000    0.0000 S   0  0  0  0  0  0  0  0  0  0  0  0
  1  4  2  0  0  0  0
  2  5  2  0  0  0  0
M  END
> <PUBCHEM_COMPOUND_CID>
25199732

> <PUBCHEM_COMPOUND_CANONICALIZED>
1

> <PUBCHEM_CACTVS_COMPLEXITY>
2

> <PUBCHEM_CACTVS_HBOND_ACCEPTOR>
2

> <PUBCHEM_CACTVS_HBOND_DONOR>
0

> <PUBCHEM_CACTVS_ROTATABLE_BOND>
0

> <PUBCHEM_CACTVS_SUBSKEYS>
AAADcQAAAABgAAAIAAAAAAAAAAAAAAAAAAAAAAAAAAAAAAAAAAAAAAAAAAAAAAAAAAAAAAAAAAAAAAAAAAAAAAAAAAAAAAAAAAAAAAAAAAAAAAAAAAAAAAAAAAAAAAAAAAAAAAAAAAAAAAAAAAAAAAAAAA==

> <PUBCHEM_IUPAC_OPENEYE_NAME>
nickel;thioxonickel

> <PUBCHEM_IUPAC_CAS_NAME>
nickel;sulfanylidenenickel

> <PUBCHEM_IUPAC_NAME_MARKUP>
nickel;sulfanylidenenickel

> <PUBCHEM_IUPAC_NAME>
nickel;sulfanylidenenickel

> <PUBCHEM_IUPAC_SYSTEMATIC_NAME>
nickel;sulfanylidenenickel

> <PUBCHEM_IUPAC_TRADITIONAL_NAME>
nickel;thioxonickel

> <PUBCHEM_IUPAC_INCHI>
InChI=1S/3Ni.2S

> <PUBCHEM_IUPAC_INCHIKEY>
YGHCWPXPAHSSNA-UHFFFAOYSA-N

> <PUBCHEM_EXACT_MASS>
239.745611

> <PUBCHEM_MOLECULAR_FORMULA>
Ni3S2

> <PUBCHEM_MOLECULAR_WEIGHT>
240.22

> <PUBCHEM_SMILES>
S=[Ni].S=[Ni].[Ni]

> <PUBCHEM_CONNECTIVITY_SMILES>
S=[Ni].S=[Ni].[Ni]

> <PUBCHEM_CACTVS_TPSA>
64.2

> <PUBCHEM_MONOISOTOPIC_WEIGHT>
237.75017

> <PUBCHEM_TOTAL_CHARGE>
0

> <PUBCHEM_HEAVY_ATOM_COUNT>
5

> <PUBCHEM_ATOM_DEF_STEREO_COUNT>
0

> <PUBCHEM_ATOM_UDEF_STEREO_COUNT>
0

> <PUBCHEM_BOND_DEF_STEREO_COUNT>
0

> <PUBCHEM_BOND_UDEF_STEREO_COUNT>
0

> <PUBCHEM_ISOTOPIC_ATOM_COUNT>
0

> <PUBCHEM_COMPONENT_COUNT>
3

> <PUBCHEM_CACTVS_TAUTO_COUNT>
-1

> <PUBCHEM_COORDINATE_TYPE>
1
5
255

$$$$
