26038
  -OEChem-08152607022D

  3  2  0     0  0  0  0  0  0999 V2000
    3.7321    0.2500    0.0000 I   0  0  0  0  0  0  0  0  0  0  0  0
    2.0000    0.2500    0.0000 I   0  0  0  0  0  0  0  0  0  0  0  0
    2.8660   -0.2500    0.0000 Ni  0  0  0  0  0  0  0  0  0  0  0  0
  1  3  1  0  0  0  0
  2  3  1  0  0  0  0
M  END
> <PUBCHEM_COMPOUND_CID>
26038

> <PUBCHEM_COMPOUND_CANONICALIZED>
1

> <PUBCHEM_CACTVS_COMPLEXITY>
2.8

> <PUBCHEM_CACTVS_HBOND_ACCEPTOR>
0

> <PUBCHEM_CACTVS_HBOND_DONOR>
0

> <PUBCHEM_CACTVS_ROTATABLE_BOND>
0

> <PUBCHEM_CACTVS_SUBSKEYS>
AAADcQAAAAAAAwAIAAAAAAAAAAAAAAAAAAAAAAAAAAAAAAAAAAAAAAAAAAAAAAAAAAAAAAAAAAAAAAAAAAAAAAAAAAAAAAAAAAAAAAAAAAAAAAAAAAAAAAAAAAAAAAAAAAAAAAAAAAAAAAAAAAAAAAAAAA==

> <PUBCHEM_IUPAC_OPENEYE_NAME>
diiodonickel

> <PUBCHEM_IUPAC_CAS_NAME>
diiodonickel

> <PUBCHEM_IUPAC_NAME_MARKUP>
diiodonickel

> <PUBCHEM_IUPAC_NAME>
diiodonickel

> <PUBCHEM_IUPAC_SYSTEMATIC_NAME>
bis(iodanyl)nickel

> <PUBCHEM_IUPAC_TRADITIONAL_NAME>
diiodonickel

> <PUBCHEM_IUPAC_INCHI>
InChI=1S/2HI.Ni/h2*1H;/q;;+2/p-2

> <PUBCHEM_IUPAC_INCHIKEY>
BFSQJYRFLQUZKX-UHFFFAOYSA-L

> <PUBCHEM_EXACT_MASS>
311.74429

> <PUBCHEM_MOLECULAR_FORMULA>
I2Ni

> <PUBCHEM_MOLECULAR_WEIGHT>
312.502

> <PUBCHEM_SMILES>
[Ni](I)I

> <PUBCHEM_CONNECTIVITY_SMILES>
[Ni](I)I

> <PUBCHEM_CACTVS_TPSA>
0

> <PUBCHEM_MONOISOTOPIC_WEIGHT>
311.74429

> <PUBCHEM_TOTAL_CHARGE>
0

> <PUBCHEM_HEAVY_ATOM_COUNT>
3

> <PUBCHEM_ATOM_DEF_STEREO_COUNT>
0

> <PUBCHEM_ATOM_UDEF_STEREO_COUNT>
0

> <PUBCHEM_BOND_DEF_STEREO_COUNT>
0

> <PUBCHEM_BOND_UDEF_STEREO_COUNT>
0

> <PUBCHEM_ISOTOPIC_ATOM_COUNT>
0

> <PUBCHEM_COMPONENT_COUNT>
1

> <PUBCHEM_CACTVS_TAUTO_COUNT>
-1

> <PUBCHEM_COORDINATE_TYPE>
1
5
255

$$$$
