10080620
  -OEChem-08152604492D

  3  0  0     0  0  0  0  0  0999 V2000
    2.5000    2.5000    0.0000 Nb  0  0  0  0  0  0  0  0  0  0  0  0
    0.0000    1.2500    0.0000 S   0  6  0  0  0  0  0  0  0  0  0  0
    2.5000    0.0000    0.0000 S   0  6  0  0  0  0  0  0  0  0  0  0
M  CHG  2   2  -2   3  -2
M  END
> <PUBCHEM_COMPOUND_CID>
10080620

> <PUBCHEM_COMPOUND_CANONICALIZED>
1

> <PUBCHEM_CACTVS_COMPLEXITY>
0

> <PUBCHEM_CACTVS_HBOND_ACCEPTOR>
2

> <PUBCHEM_CACTVS_HBOND_DONOR>
0

> <PUBCHEM_CACTVS_ROTATABLE_BOND>
0

> <PUBCHEM_CACTVS_SUBSKEYS>
AAADcQAAAABgAAAAAIAAAAAAAAAAAAAAAAAAAAAAAAAAAAAAAAAAAAAAAAAAAAAAAAAAAAAAAAAAAAAAAAAAAAAAAAAAAAAAAAAAAAAAAAAAAAAAAAAAAAAAAAAAAAAAAAAAAAAAAAAAAAAAAAAAAAAAAA==

> <PUBCHEM_IUPAC_OPENEYE_NAME>
niobium disulfide

> <PUBCHEM_IUPAC_CAS_NAME>
niobium disulfide

> <PUBCHEM_IUPAC_NAME_MARKUP>
niobium disulfide

> <PUBCHEM_IUPAC_NAME>
niobium disulfide

> <PUBCHEM_IUPAC_SYSTEMATIC_NAME>
niobium disulfide

> <PUBCHEM_IUPAC_TRADITIONAL_NAME>
niobium disulfide

> <PUBCHEM_IUPAC_INCHI>
InChI=1S/Nb.2S/q;2*-2

> <PUBCHEM_IUPAC_INCHIKEY>
CRLXCBBSVSMASN-UHFFFAOYSA-N

> <PUBCHEM_EXACT_MASS>
156.85052

> <PUBCHEM_MOLECULAR_FORMULA>
NbS2-4

> <PUBCHEM_MOLECULAR_WEIGHT>
157.04

> <PUBCHEM_SMILES>
[S-2].[S-2].[Nb]

> <PUBCHEM_CONNECTIVITY_SMILES>
[S-2].[S-2].[Nb]

> <PUBCHEM_CACTVS_TPSA>
2

> <PUBCHEM_MONOISOTOPIC_WEIGHT>
156.85052

> <PUBCHEM_TOTAL_CHARGE>
-4

> <PUBCHEM_HEAVY_ATOM_COUNT>
3

> <PUBCHEM_ATOM_DEF_STEREO_COUNT>
0

> <PUBCHEM_ATOM_UDEF_STEREO_COUNT>
0

> <PUBCHEM_BOND_DEF_STEREO_COUNT>
0

> <PUBCHEM_BOND_UDEF_STEREO_COUNT>
0

> <PUBCHEM_ISOTOPIC_ATOM_COUNT>
0

> <PUBCHEM_COMPONENT_COUNT>
3

> <PUBCHEM_CACTVS_TAUTO_COUNT>
-1

> <PUBCHEM_COORDINATE_TYPE>
1
5
255

$$$$
