166177182
  -OEChem-08152605262D

 33  0  0     0  0  0  0  0  0999 V2000
    5.4641    7.7500    0.0000 Nb  0  0  0  0  0  0  0  0  0  0  0  0
    7.1962    7.7500    0.0000 Nb  0  0  0  0  0  0  0  0  0  0  0  0
   10.0622    7.7500    0.0000 Nb  0  0  0  0  0  0  0  0  0  0  0  0
   11.7942    7.7500    0.0000 Nb  0  0  0  0  0  0  0  0  0  0  0  0
    0.8660    7.7500    0.0000 Nb  0  0  0  0  0  0  0  0  0  0  0  0
    2.5981    7.7500    0.0000 Nb  0  0  0  0  0  0  0  0  0  0  0  0
   15.5263    3.0000    0.0000 K   0  3  0  0  0  0  0  0  0  0  0  0
   15.5263    0.5000    0.0000 K   0  3  0  0  0  0  0  0  0  0  0  0
   13.7942    0.5000    0.0000 K   0  3  0  0  0  0  0  0  0  0  0  0
   13.7942    3.0000    0.0000 K   0  3  0  0  0  0  0  0  0  0  0  0
   15.5263    5.5000    0.0000 K   0  3  0  0  0  0  0  0  0  0  0  0
   15.5263    8.0000    0.0000 K   0  3  0  0  0  0  0  0  0  0  0  0
   13.7942    8.0000    0.0000 K   0  3  0  0  0  0  0  0  0  0  0  0
   13.7942    5.5000    0.0000 K   0  3  0  0  0  0  0  0  0  0  0  0
    1.7321    8.2500    0.0000 O   0  6  0  0  0  0  0  0  0  0  0  0
    0.0000    7.2500    0.0000 O   0  6  0  0  0  0  0  0  0  0  0  0
    0.3660    8.6160    0.0000 O   0  6  0  0  0  0  0  0  0  0  0  0
    1.3660    6.8840    0.0000 O   0  6  0  0  0  0  0  0  0  0  0  0
    6.3301    8.2500    0.0000 O   0  6  0  0  0  0  0  0  0  0  0  0
    4.5981    7.2500    0.0000 O   0  6  0  0  0  0  0  0  0  0  0  0
    4.9641    8.6160    0.0000 O   0  6  0  0  0  0  0  0  0  0  0  0
    5.9641    6.8840    0.0000 O   0  6  0  0  0  0  0  0  0  0  0  0
   10.9282    8.2500    0.0000 O   0  6  0  0  0  0  0  0  0  0  0  0
    9.1962    7.2500    0.0000 O   0  6  0  0  0  0  0  0  0  0  0  0
    9.5622    8.6160    0.0000 O   0  6  0  0  0  0  0  0  0  0  0  0
   10.5622    6.8840    0.0000 O   0  6  0  0  0  0  0  0  0  0  0  0
   14.6603    0.0000    0.0000 O   0  6  0  0  0  0  0  0  0  0  0  0
   14.6603    2.5000    0.0000 O   0  6  0  0  0  0  0  0  0  0  0  0
   14.6603    5.0000    0.0000 O   0  6  0  0  0  0  0  0  0  0  0  0
   14.6603    7.5000    0.0000 O   0  6  0  0  0  0  0  0  0  0  0  0
   14.4103   10.0000    0.0000 O   0  6  0  0  0  0  0  0  0  0  0  0
   14.4103   12.5000    0.0000 O   0  6  0  0  0  0  0  0  0  0  0  0
   14.4103   15.0000    0.0000 O   0  6  0  0  0  0  0  0  0  0  0  0
M  CHG  8   1   5   2   5   3   5   4   5   5   5   6   5   7   1   8   1
M  CHG  8   9   1  10   1  11   1  12   1  13   1  14   1  15  -2  16  -2
M  CHG  8  17  -2  18  -2  19  -2  20  -2  21  -2  22  -2  23  -2  24  -2
M  CHG  8  25  -2  26  -2  27  -2  28  -2  29  -2  30  -2  31  -2  32  -2
M  CHG  1  33  -2
M  END
> <PUBCHEM_COMPOUND_CID>
166177182

> <PUBCHEM_COMPOUND_CANONICALIZED>
1

> <PUBCHEM_CACTVS_COMPLEXITY>
0

> <PUBCHEM_CACTVS_HBOND_ACCEPTOR>
19

> <PUBCHEM_CACTVS_HBOND_DONOR>
0

> <PUBCHEM_CACTVS_ROTATABLE_BOND>
0

> <PUBCHEM_CACTVS_SUBSKEYS>
AAADcQAAPgAAYAAAAIAAAAAAAAAAAAAAAAAAAAAAAAAAAAAAAAAAAAAAAAAAAAAAAAAAAAAAAAAAAAAAAAAAAAAAAAAAAAAAAAAAAAAAAAAAAAAAAAAAAAAAAAAAAAAAAAAAAAAAAAAAAAAAAAAAAAAAAA==

> <PUBCHEM_IUPAC_OPENEYE_NAME>
octapotassium;hexakis(niobium(5+));nonadecakis(oxygen(2-))

> <PUBCHEM_IUPAC_CAS_NAME>
octapotassium;hexakis(niobium(5+));nonadecakis(oxygen(2-))

> <PUBCHEM_IUPAC_NAME_MARKUP>
octapotassium;hexakis(niobium(5+));nonadecakis(oxygen(2-))

> <PUBCHEM_IUPAC_NAME>
octapotassium;hexakis(niobium(5+));nonadecakis(oxygen(2-))

> <PUBCHEM_IUPAC_SYSTEMATIC_NAME>
octapotassium;hexakis(niobium(5+));nonadecakis(oxygen(2-))

> <PUBCHEM_IUPAC_TRADITIONAL_NAME>
octapotassium;hexakis(niobium(5+));nonadecakis(oxygen(2-))

> <PUBCHEM_IUPAC_INCHI>
InChI=1S/8K.6Nb.19O/q8*+1;6*+5;19*-2

> <PUBCHEM_IUPAC_INCHIKEY>
GCDFIJPZDKYCQY-UHFFFAOYSA-N

> <PUBCHEM_EXACT_MASS>
1173.05127

> <PUBCHEM_MOLECULAR_FORMULA>
K8Nb6O19

> <PUBCHEM_MOLECULAR_WEIGHT>
1174.21

> <PUBCHEM_SMILES>
[O-2].[O-2].[O-2].[O-2].[O-2].[O-2].[O-2].[O-2].[O-2].[O-2].[O-2].[O-2].[O-2].[O-2].[O-2].[O-2].[O-2].[O-2].[O-2].[K+].[K+].[K+].[K+].[K+].[K+].[K+].[K+].[Nb+5].[Nb+5].[Nb+5].[Nb+5].[Nb+5].[Nb+5]

> <PUBCHEM_CONNECTIVITY_SMILES>
[O-2].[O-2].[O-2].[O-2].[O-2].[O-2].[O-2].[O-2].[O-2].[O-2].[O-2].[O-2].[O-2].[O-2].[O-2].[O-2].[O-2].[O-2].[O-2].[K+].[K+].[K+].[K+].[K+].[K+].[K+].[K+].[Nb+5].[Nb+5].[Nb+5].[Nb+5].[Nb+5].[Nb+5]

> <PUBCHEM_CACTVS_TPSA>
19

> <PUBCHEM_MONOISOTOPIC_WEIGHT>
1173.05127

> <PUBCHEM_TOTAL_CHARGE>
0

> <PUBCHEM_HEAVY_ATOM_COUNT>
33

> <PUBCHEM_ATOM_DEF_STEREO_COUNT>
0

> <PUBCHEM_ATOM_UDEF_STEREO_COUNT>
0

> <PUBCHEM_BOND_DEF_STEREO_COUNT>
0

> <PUBCHEM_BOND_UDEF_STEREO_COUNT>
0

> <PUBCHEM_ISOTOPIC_ATOM_COUNT>
0

> <PUBCHEM_COMPONENT_COUNT>
33

> <PUBCHEM_CACTVS_TAUTO_COUNT>
-1

> <PUBCHEM_COORDINATE_TYPE>
1
5
255

$$$$
