82840
  -OEChem-08152605472D

  2  1  0     0  0  0  0  0  0999 V2000
    3.0000    0.0000    0.0000 Nb  0  0  0  0  0  0  0  0  0  0  0  0
    2.0000    0.0000    0.0000 P   0  0  0  0  0  0  0  0  0  0  0  0
  1  2  3  0  0  0  0
M  END
> <PUBCHEM_COMPOUND_CID>
82840

> <PUBCHEM_COMPOUND_CANONICALIZED>
1

> <PUBCHEM_CACTVS_COMPLEXITY>
10

> <PUBCHEM_CACTVS_HBOND_ACCEPTOR>
0

> <PUBCHEM_CACTVS_HBOND_DONOR>
0

> <PUBCHEM_CACTVS_ROTATABLE_BOND>
0

> <PUBCHEM_CACTVS_SUBSKEYS>
AAADcQAAAAIAAAAAAIAAAAAAAAAAAAAAAAAAAAAAAAAAAAAAAAAAAAAAAAAAAAAAAAAAAAAAAAAAAAAAAAAAAAAAAAAAAAAAAAAAAAAAAAAAAAAAAAAAAAAAAAAAAAAAAAAAAAAAAAAAAAAAAAAAAAAAAA==

> <PUBCHEM_IUPAC_OPENEYE_NAME>
phosphanylidyneniobium

> <PUBCHEM_IUPAC_CAS_NAME>
phosphinidyneniobium

> <PUBCHEM_IUPAC_NAME_MARKUP>
phosphanylidyneniobium

> <PUBCHEM_IUPAC_NAME>
phosphanylidyneniobium

> <PUBCHEM_IUPAC_SYSTEMATIC_NAME>
phosphanylidyneniobium

> <PUBCHEM_IUPAC_TRADITIONAL_NAME>
phosphinidyneniobium

> <PUBCHEM_IUPAC_INCHI>
InChI=1S/Nb.P

> <PUBCHEM_IUPAC_INCHIKEY>
OATFOCVSPXTLNR-UHFFFAOYSA-N

> <PUBCHEM_EXACT_MASS>
123.88014

> <PUBCHEM_MOLECULAR_FORMULA>
NbP

> <PUBCHEM_MOLECULAR_WEIGHT>
123.88013

> <PUBCHEM_SMILES>
P#[Nb]

> <PUBCHEM_CONNECTIVITY_SMILES>
P#[Nb]

> <PUBCHEM_CACTVS_TPSA>
0

> <PUBCHEM_MONOISOTOPIC_WEIGHT>
123.88014

> <PUBCHEM_TOTAL_CHARGE>
0

> <PUBCHEM_HEAVY_ATOM_COUNT>
2

> <PUBCHEM_ATOM_DEF_STEREO_COUNT>
0

> <PUBCHEM_ATOM_UDEF_STEREO_COUNT>
0

> <PUBCHEM_BOND_DEF_STEREO_COUNT>
0

> <PUBCHEM_BOND_UDEF_STEREO_COUNT>
0

> <PUBCHEM_ISOTOPIC_ATOM_COUNT>
0

> <PUBCHEM_COMPONENT_COUNT>
1

> <PUBCHEM_CACTVS_TAUTO_COUNT>
-1

> <PUBCHEM_COORDINATE_TYPE>
1
5
255

$$$$
