82882
  -OEChem-08152605552D

  2  1  0     0  0  0  0  0  0999 V2000
    3.0000    0.0000    0.0000 Nb  0  0  0  0  0  0  0  0  0  0  0  0
    2.0000    0.0000    0.0000 B   0  0  0  0  0  0  0  0  0  0  0  0
  1  2  3  0  0  0  0
M  END
> <PUBCHEM_COMPOUND_CID>
82882

> <PUBCHEM_COMPOUND_CANONICALIZED>
1

> <PUBCHEM_CACTVS_COMPLEXITY>
10

> <PUBCHEM_CACTVS_HBOND_ACCEPTOR>
0

> <PUBCHEM_CACTVS_HBOND_DONOR>
0

> <PUBCHEM_CACTVS_ROTATABLE_BOND>
0

> <PUBCHEM_CACTVS_SUBSKEYS>
AAADcQIAAAAAAAAAAIAAAAAAAAAAAAAAAAAAAAAAAAAAAAAAAAAAAAAAAAAAAAAAAAAAAAAAAAAAAAAAAAAAAAAAAAAAAAAAAAAAAAAAAAAAAAAAAAAAAAAAAAAAAAAAAAAAAAAAAAAAAAAAAAAAAAAAAA==

> <PUBCHEM_IUPAC_OPENEYE_NAME>
boranylidyneniobium

> <PUBCHEM_IUPAC_CAS_NAME>
boranylidyneniobium

> <PUBCHEM_IUPAC_NAME_MARKUP>
boranylidyneniobium

> <PUBCHEM_IUPAC_NAME>
boranylidyneniobium

> <PUBCHEM_IUPAC_SYSTEMATIC_NAME>
boranylidyneniobium

> <PUBCHEM_IUPAC_TRADITIONAL_NAME>
borylidyneniobium

> <PUBCHEM_IUPAC_INCHI>
InChI=1S/B.Nb

> <PUBCHEM_IUPAC_INCHIKEY>
VDZMENNHPJNJPP-UHFFFAOYSA-N

> <PUBCHEM_EXACT_MASS>
103.91568

> <PUBCHEM_MOLECULAR_FORMULA>
BNb

> <PUBCHEM_MOLECULAR_WEIGHT>
103.72

> <PUBCHEM_SMILES>
B#[Nb]

> <PUBCHEM_CONNECTIVITY_SMILES>
B#[Nb]

> <PUBCHEM_CACTVS_TPSA>
0

> <PUBCHEM_MONOISOTOPIC_WEIGHT>
103.91568

> <PUBCHEM_TOTAL_CHARGE>
0

> <PUBCHEM_HEAVY_ATOM_COUNT>
2

> <PUBCHEM_ATOM_DEF_STEREO_COUNT>
0

> <PUBCHEM_ATOM_UDEF_STEREO_COUNT>
0

> <PUBCHEM_BOND_DEF_STEREO_COUNT>
0

> <PUBCHEM_BOND_UDEF_STEREO_COUNT>
0

> <PUBCHEM_ISOTOPIC_ATOM_COUNT>
0

> <PUBCHEM_COMPONENT_COUNT>
1

> <PUBCHEM_CACTVS_TAUTO_COUNT>
-1

> <PUBCHEM_COORDINATE_TYPE>
1
5
255

$$$$
