9903420
  -OEChem-08152605592D

  7  0  0     0  0  0  0  0  0999 V2000
    0.8660    0.8660    0.0000 Nb  0  0  0  0  0  0  0  0  0  0  0  0
    2.5981    0.8660    0.0000 Nb  0  0  0  0  0  0  0  0  0  0  0  0
    1.7321    1.3660    0.0000 O   0  6  0  0  0  0  0  0  0  0  0  0
    0.0000    0.3660    0.0000 O   0  6  0  0  0  0  0  0  0  0  0  0
    0.3660    1.7321    0.0000 O   0  6  0  0  0  0  0  0  0  0  0  0
    1.3660    0.0000    0.0000 O   0  6  0  0  0  0  0  0  0  0  0  0
    1.0490    3.7321    0.0000 O   0  6  0  0  0  0  0  0  0  0  0  0
M  CHG  7   1   5   2   5   3  -2   4  -2   5  -2   6  -2   7  -2
M  END
> <PUBCHEM_COMPOUND_CID>
9903420

> <PUBCHEM_COMPOUND_CANONICALIZED>
1

> <PUBCHEM_CACTVS_COMPLEXITY>
0

> <PUBCHEM_CACTVS_HBOND_ACCEPTOR>
5

> <PUBCHEM_CACTVS_HBOND_DONOR>
0

> <PUBCHEM_CACTVS_ROTATABLE_BOND>
0

> <PUBCHEM_CACTVS_SUBSKEYS>
AAADcQAAOAAAAAAAAIAAAAAAAAAAAAAAAAAAAAAAAAAAAAAAAAAAAAAAAAAAAAAAAAAAAAAAAAAAAAAAAAAAAAAAAAAAAAAAAAAAAAAAAAAAAAAAAAAAAAAAAAAAAAAAAAAAAAAAAAAAAAAAAAAAAAAAAA==

> <PUBCHEM_IUPAC_OPENEYE_NAME>
bis(niobium(5+));pentakis(oxygen(2-))

> <PUBCHEM_IUPAC_CAS_NAME>
bis(niobium(5+));pentakis(oxygen(2-))

> <PUBCHEM_IUPAC_NAME_MARKUP>
bis(niobium(5+));pentakis(oxygen(2-))

> <PUBCHEM_IUPAC_NAME>
bis(niobium(5+));pentakis(oxygen(2-))

> <PUBCHEM_IUPAC_SYSTEMATIC_NAME>
bis(niobium(5+));pentakis(oxygen(2-))

> <PUBCHEM_IUPAC_TRADITIONAL_NAME>
bis(niobium(5+));pentakis(oxygen(2-))

> <PUBCHEM_IUPAC_INCHI>
InChI=1S/2Nb.5O/q2*+5;5*-2

> <PUBCHEM_IUPAC_INCHIKEY>
URLJKFSTXLNXLG-UHFFFAOYSA-N

> <PUBCHEM_EXACT_MASS>
265.78732

> <PUBCHEM_MOLECULAR_FORMULA>
Nb2O5

> <PUBCHEM_MOLECULAR_WEIGHT>
265.81

> <PUBCHEM_SMILES>
[O-2].[O-2].[O-2].[O-2].[O-2].[Nb+5].[Nb+5]

> <PUBCHEM_CONNECTIVITY_SMILES>
[O-2].[O-2].[O-2].[O-2].[O-2].[Nb+5].[Nb+5]

> <PUBCHEM_CACTVS_TPSA>
5

> <PUBCHEM_MONOISOTOPIC_WEIGHT>
265.78732

> <PUBCHEM_TOTAL_CHARGE>
0

> <PUBCHEM_HEAVY_ATOM_COUNT>
7

> <PUBCHEM_ATOM_DEF_STEREO_COUNT>
0

> <PUBCHEM_ATOM_UDEF_STEREO_COUNT>
0

> <PUBCHEM_BOND_DEF_STEREO_COUNT>
0

> <PUBCHEM_BOND_UDEF_STEREO_COUNT>
0

> <PUBCHEM_ISOTOPIC_ATOM_COUNT>
0

> <PUBCHEM_COMPONENT_COUNT>
7

> <PUBCHEM_CACTVS_TAUTO_COUNT>
-1

> <PUBCHEM_COORDINATE_TYPE>
1
5
255

$$$$
