83728
  -OEChem-08152605192D

  6  5  0     0  0  0  0  0  0999 V2000
    3.8606    0.4677    0.0000 I   0  0  0  0  0  0  0  0  0  0  0  0
    2.0000    0.0722    0.0000 I   0  0  0  0  0  0  0  0  0  0  0  0
    2.5878   -0.9458    0.0000 I   0  0  0  0  0  0  0  0  0  0  0  0
    2.7866    0.9458    0.0000 I   0  0  0  0  0  0  0  0  0  0  0  0
    3.7377   -0.7014    0.0000 I   0  0  0  0  0  0  0  0  0  0  0  0
    2.9945   -0.0323    0.0000 Nb  0  0  0  0  0  0  0  0  0  0  0  0
  1  6  1  0  0  0  0
  2  6  1  0  0  0  0
  3  6  1  0  0  0  0
  4  6  1  0  0  0  0
  5  6  1  0  0  0  0
M  END
> <PUBCHEM_COMPOUND_CID>
83728

> <PUBCHEM_COMPOUND_CANONICALIZED>
1

> <PUBCHEM_CACTVS_COMPLEXITY>
37.1

> <PUBCHEM_CACTVS_HBOND_ACCEPTOR>
0

> <PUBCHEM_CACTVS_HBOND_DONOR>
0

> <PUBCHEM_CACTVS_ROTATABLE_BOND>
0

> <PUBCHEM_CACTVS_SUBSKEYS>
AAADcQAAAAAAA4AAAIAAAAAAAAAAAAAAAAAAAAAAAAAAAAAAAAAAAAAAAAAAAAAAAAAAAAAAAAAAAAAAAAAAAAAAAAAAAAAAAAAAAAAAAAAAAAAAAAAAAAAAAAAAAAAAAAAAAAAAAAAAAAAAAAAAAAAAAA==

> <PUBCHEM_IUPAC_OPENEYE_NAME>
pentaiodoniobium

> <PUBCHEM_IUPAC_CAS_NAME>
pentaiodoniobium

> <PUBCHEM_IUPAC_NAME_MARKUP>
pentaiodoniobium

> <PUBCHEM_IUPAC_NAME>
pentaiodoniobium

> <PUBCHEM_IUPAC_SYSTEMATIC_NAME>
pentakis(iodanyl)niobium

> <PUBCHEM_IUPAC_TRADITIONAL_NAME>
pentaiodoniobium

> <PUBCHEM_IUPAC_INCHI>
InChI=1S/5HI.Nb/h5*1H;/q;;;;;+5/p-5

> <PUBCHEM_IUPAC_INCHIKEY>
FWIYBTVHGYLSAZ-UHFFFAOYSA-I

> <PUBCHEM_EXACT_MASS>
727.4287

> <PUBCHEM_MOLECULAR_FORMULA>
I5Nb

> <PUBCHEM_MOLECULAR_WEIGHT>
727.4287

> <PUBCHEM_SMILES>
[Nb](I)(I)(I)(I)I

> <PUBCHEM_CONNECTIVITY_SMILES>
[Nb](I)(I)(I)(I)I

> <PUBCHEM_CACTVS_TPSA>
0

> <PUBCHEM_MONOISOTOPIC_WEIGHT>
727.4287

> <PUBCHEM_TOTAL_CHARGE>
0

> <PUBCHEM_HEAVY_ATOM_COUNT>
6

> <PUBCHEM_ATOM_DEF_STEREO_COUNT>
0

> <PUBCHEM_ATOM_UDEF_STEREO_COUNT>
0

> <PUBCHEM_BOND_DEF_STEREO_COUNT>
0

> <PUBCHEM_BOND_UDEF_STEREO_COUNT>
0

> <PUBCHEM_ISOTOPIC_ATOM_COUNT>
0

> <PUBCHEM_COMPONENT_COUNT>
1

> <PUBCHEM_CACTVS_TAUTO_COUNT>
-1

> <PUBCHEM_COORDINATE_TYPE>
1
5
255

$$$$
