66242
  -OEChem-08152605393D

  7  6  0     0  0  0  0  0  0999 V2000
    0.0000   -0.7316    0.0000 O   0  0  0  0  0  0  0  0  0  0  0  0
    1.2106    1.1958   -0.0173 O   0  5  0  0  0  0  0  0  0  0  0  0
   -1.2106    1.1958    0.0173 O   0  5  0  0  0  0  0  0  0  0  0  0
    2.2075   -0.7944    0.0195 O   0  0  0  0  0  0  0  0  0  0  0  0
   -2.2074   -0.7945   -0.0194 O   0  0  0  0  0  0  0  0  0  0  0  0
    1.2377   -0.0356   -0.0177 N   0  3  0  0  0  0  0  0  0  0  0  0
   -1.2377   -0.0355    0.0177 N   0  3  0  0  0  0  0  0  0  0  0  0
  1  6  1  0  0  0  0
  1  7  1  0  0  0  0
  2  6  1  0  0  0  0
  3  7  1  0  0  0  0
  4  6  2  0  0  0  0
  5  7  2  0  0  0  0
M  CHG  4   2  -1   3  -1   6   1   7   1
M  END
> <PUBCHEM_COMPOUND_CID>
66242

> <PUBCHEM_CONFORMER_RMSD>
0.4

> <PUBCHEM_CONFORMER_DIVERSEORDER>
1
4
5
6
2
3

> <PUBCHEM_MMFF94_PARTIAL_CHARGES>
7
1 0.02
2 -0.52
3 -0.52
4 -0.52
5 -0.52
6 1.03
7 1.03

> <PUBCHEM_EFFECTIVE_ROTOR_COUNT>
2

> <PUBCHEM_PHARMACOPHORE_FEATURES>
4
1 2 acceptor
1 3 acceptor
1 4 acceptor
1 5 acceptor

> <PUBCHEM_HEAVY_ATOM_COUNT>
7

> <PUBCHEM_ATOM_DEF_STEREO_COUNT>
0

> <PUBCHEM_ATOM_UDEF_STEREO_COUNT>
0

> <PUBCHEM_BOND_DEF_STEREO_COUNT>
0

> <PUBCHEM_BOND_UDEF_STEREO_COUNT>
0

> <PUBCHEM_ISOTOPIC_ATOM_COUNT>
0

> <PUBCHEM_COMPONENT_COUNT>
1

> <PUBCHEM_CACTVS_TAUTO_COUNT>
1

> <PUBCHEM_CONFORMER_ID>
000102C200000001

> <PUBCHEM_MMFF94_ENERGY>
16.1063

> <PUBCHEM_FEATURE_SELFOVERLAP>
20.47

> <PUBCHEM_SHAPE_FINGERPRINT>
139733 1 9295288339353573729
20096714 4 18410294692049872824
24536 1 18338503196974113313
29004967 10 18190183584097845107
5460574 1 9223231849349217602

> <PUBCHEM_SHAPE_MULTIPOLES>
104.75
2.74
1.15
0.5
0
0.28
0
-0.61
0
0
0
0
0
-0.02

> <PUBCHEM_SHAPE_SELFOVERLAP>
193.376

> <PUBCHEM_SHAPE_VOLUME>
59

> <PUBCHEM_COORDINATE_TYPE>
2
5
10

$$$$
