71311424
  -OEChem-08152606482D

 23 12  0     0  0  0  0  0  0999 V2000
    2.3241    4.2214    0.0000 Fe  0  1  0  0  0  0  0  0  0  0  0  0
    2.5830    5.1873    0.0000 Fe  0  0  0  0  0  0  0  0  0  0  0  0
    0.0000    4.5676    0.0000 O   0  0  0  0  0  0  0  0  0  0  0  0
    4.2231    3.3642    0.0000 O   0  0  0  0  0  0  0  0  0  0  0  0
    2.1052    7.1358    0.0000 O   0  0  0  0  0  0  0  0  0  0  0  0
    6.2600    0.0000    0.0000 O   0  3  0  0  0  0  0  0  0  0  0  0
    6.2600    2.5000    0.0000 O   0  3  0  0  0  0  0  0  0  0  0  0
    6.2600    5.0000    0.0000 O   0  3  0  0  0  0  0  0  0  0  0  0
    6.2600    7.5000    0.0000 O   0  3  0  0  0  0  0  0  0  0  0  0
    6.2600   10.0000    0.0000 O   0  3  0  0  0  0  0  0  0  0  0  0
    9.2600    5.0000    0.0000 O   0  3  0  0  0  0  0  0  0  0  0  0
    0.9063    4.1450    0.0000 C   0  5  0  0  0  0  0  0  0  0  0  0
    3.7231    4.2302    0.0000 C   0  5  0  0  0  0  0  0  0  0  0  0
    1.8463    6.1699    0.0000 C   0  5  0  0  0  0  0  0  0  0  0  0
    7.2600    0.0000    0.0000 C   0  5  0  0  0  0  0  0  0  0  0  0
    7.2600    2.5000    0.0000 C   0  5  0  0  0  0  0  0  0  0  0  0
    7.2600    5.0000    0.0000 C   0  5  0  0  0  0  0  0  0  0  0  0
    7.2600    7.5000    0.0000 C   0  5  0  0  0  0  0  0  0  0  0  0
    7.2600   10.0000    0.0000 C   0  5  0  0  0  0  0  0  0  0  0  0
   10.2600    5.0000    0.0000 C   0  5  0  0  0  0  0  0  0  0  0  0
    0.6443    3.5831    0.0000 H   0  0  0  0  0  0  0  0  0  0  0  0
    4.2600    4.5402    0.0000 H   0  0  0  0  0  0  0  0  0  0  0  0
    1.2475    6.3304    0.0000 H   0  0  0  0  0  0  0  0  0  0  0  0
  3 12  2  0  0  0  0
  4 13  2  0  0  0  0
  5 14  2  0  0  0  0
  6 15  3  0  0  0  0
  7 16  3  0  0  0  0
  8 17  3  0  0  0  0
  9 18  3  0  0  0  0
 10 19  3  0  0  0  0
 11 20  3  0  0  0  0
 12 21  1  0  0  0  0
 13 22  1  0  0  0  0
 14 23  1  0  0  0  0
M  CHG  8   1   3   6   1   7   1   8   1   9   1  10   1  11   1  12  -1
M  CHG  8  13  -1  14  -1  15  -1  16  -1  17  -1  18  -1  19  -1  20  -1
M  END
> <PUBCHEM_COMPOUND_CID>
71311424

> <PUBCHEM_COMPOUND_CANONICALIZED>
1

> <PUBCHEM_CACTVS_COMPLEXITY>
27.2

> <PUBCHEM_CACTVS_HBOND_ACCEPTOR>
12

> <PUBCHEM_CACTVS_HBOND_DONOR>
0

> <PUBCHEM_CACTVS_ROTATABLE_BOND>
0

> <PUBCHEM_CACTVS_SUBSKEYS>
AAADcQBwPAAAAAAgAAAAAAAAAABIkAAAAAAAAAAAAAAAAAAAAAAAEgAAAAAAAAAAAAIAAAAAAAAIAAAAgAAAAAAAAAAAAAAAAAAAAAAAAAAAAAAAAAAAAAAAAAAAAAAAAAAAAAAAAAAAAAAAAAAAAAAAAA==

> <PUBCHEM_IUPAC_OPENEYE_NAME>
ferric;carbon monoxide;iron;methanone

> <PUBCHEM_IUPAC_CAS_NAME>
carbon monoxide;iron;iron(3+);methanone

> <PUBCHEM_IUPAC_NAME_MARKUP>
carbon monoxide;iron;iron(3+);methanone

> <PUBCHEM_IUPAC_NAME>
carbon monoxide;iron;iron(3+);methanone

> <PUBCHEM_IUPAC_SYSTEMATIC_NAME>
carbon monoxide;iron;iron(3+);methanone

> <PUBCHEM_IUPAC_TRADITIONAL_NAME>
ferric;carbon monoxide;iron;methanone

> <PUBCHEM_IUPAC_INCHI>
InChI=1S/3CHO.6CO.2Fe/c9*1-2;;/h3*1H;;;;;;;;/q3*-1;;;;;;;;+3

> <PUBCHEM_IUPAC_INCHIKEY>
CGJSNKHFIBINMR-UHFFFAOYSA-N

> <PUBCHEM_EXACT_MASS>
366.847578

> <PUBCHEM_MOLECULAR_FORMULA>
C9H3Fe2O9

> <PUBCHEM_MOLECULAR_WEIGHT>
366.80

> <PUBCHEM_SMILES>
[CH-]=O.[CH-]=O.[CH-]=O.[C-]#[O+].[C-]#[O+].[C-]#[O+].[C-]#[O+].[C-]#[O+].[C-]#[O+].[Fe].[Fe+3]

> <PUBCHEM_CONNECTIVITY_SMILES>
[CH-]=O.[CH-]=O.[CH-]=O.[C-]#[O+].[C-]#[O+].[C-]#[O+].[C-]#[O+].[C-]#[O+].[C-]#[O+].[Fe].[Fe+3]

> <PUBCHEM_CACTVS_TPSA>
57.2

> <PUBCHEM_MONOISOTOPIC_WEIGHT>
366.847578

> <PUBCHEM_TOTAL_CHARGE>
0

> <PUBCHEM_HEAVY_ATOM_COUNT>
20

> <PUBCHEM_ATOM_DEF_STEREO_COUNT>
0

> <PUBCHEM_ATOM_UDEF_STEREO_COUNT>
0

> <PUBCHEM_BOND_DEF_STEREO_COUNT>
0

> <PUBCHEM_BOND_UDEF_STEREO_COUNT>
0

> <PUBCHEM_ISOTOPIC_ATOM_COUNT>
0

> <PUBCHEM_COMPONENT_COUNT>
11

> <PUBCHEM_CACTVS_TAUTO_COUNT>
-1

> <PUBCHEM_NONSTANDARDBOND>
1  12  6
1  13  6
1  14  6
2  12  6
2  13  6
2  14  6

> <PUBCHEM_COORDINATE_TYPE>
1
5
255

$$$$
