952
  -OEChem-08152603313D

 19 19  0     1  0  0  0  0  0999 V2000
    0.3068   -1.0509   -0.6481 O   0  0  0  0  0  0  0  0  0  0  0  0
   -0.2909    1.9118   -0.5988 O   0  0  0  0  0  0  0  0  0  0  0  0
   -2.2090   -0.6541    1.0761 O   0  0  0  0  0  0  0  0  0  0  0  0
    2.9277   -0.6097    0.2622 O   0  0  0  0  0  0  0  0  0  0  0  0
   -0.5365    0.9104    0.3805 C   0  0  2  0  0  0  0  0  0  0  0  0
    0.5953   -0.1120    0.4037 C   0  0  2  0  0  0  0  0  0  0  0  0
   -1.7109    0.0599   -0.0494 C   0  0  1  0  0  0  0  0  0  0  0  0
   -1.0728   -0.9084   -1.0309 C   0  0  0  0  0  0  0  0  0  0  0  0
    1.9902    0.4531    0.2048 C   0  0  0  0  0  0  0  0  0  0  0  0
   -0.6611    1.3909    1.3559 H   0  0  0  0  0  0  0  0  0  0  0  0
    0.5616   -0.6926    1.3345 H   0  0  0  0  0  0  0  0  0  0  0  0
   -2.5330    0.6231   -0.5009 H   0  0  0  0  0  0  0  0  0  0  0  0
   -1.5401   -1.8973   -1.0331 H   0  0  0  0  0  0  0  0  0  0  0  0
   -1.0820   -0.5039   -2.0482 H   0  0  0  0  0  0  0  0  0  0  0  0
    2.2330    1.1824    0.9836 H   0  0  0  0  0  0  0  0  0  0  0  0
    2.0932    0.9218   -0.7791 H   0  0  0  0  0  0  0  0  0  0  0  0
   -1.0640    2.5014   -0.6121 H   0  0  0  0  0  0  0  0  0  0  0  0
   -2.9179   -1.2395    0.7592 H   0  0  0  0  0  0  0  0  0  0  0  0
    3.8099   -0.2205    0.1362 H   0  0  0  0  0  0  0  0  0  0  0  0
  1  6  1  0  0  0  0
  1  8  1  0  0  0  0
  2  5  1  0  0  0  0
  2 17  1  0  0  0  0
  3  7  1  0  0  0  0
  3 18  1  0  0  0  0
  4  9  1  0  0  0  0
  4 19  1  0  0  0  0
  5  6  1  0  0  0  0
  5  7  1  0  0  0  0
  5 10  1  0  0  0  0
  6  9  1  0  0  0  0
  6 11  1  0  0  0  0
  7  8  1  0  0  0  0
  7 12  1  0  0  0  0
  8 13  1  0  0  0  0
  8 14  1  0  0  0  0
  9 15  1  0  0  0  0
  9 16  1  0  0  0  0
M  END
> <PUBCHEM_COMPOUND_CID>
952

> <PUBCHEM_CONFORMER_RMSD>
0.4

> <PUBCHEM_CONFORMER_DIVERSEORDER>
6
34
28
8
4
27
19
29
40
2
37
23
38
20
15
7
32
36
21
35
18
30
13
26
16
41
25
1
31
11
5
12
17
14
9
24
39
22
3
10
33
42

> <PUBCHEM_MMFF94_PARTIAL_CHARGES>
12
1 -0.56
17 0.4
18 0.4
19 0.4
2 -0.68
3 -0.68
4 -0.68
5 0.28
6 0.28
7 0.28
8 0.28
9 0.28

> <PUBCHEM_EFFECTIVE_ROTOR_COUNT>
2

> <PUBCHEM_PHARMACOPHORE_FEATURES>
8
1 1 acceptor
1 2 acceptor
1 2 donor
1 3 acceptor
1 3 donor
1 4 acceptor
1 4 donor
5 1 5 6 7 8 rings

> <PUBCHEM_HEAVY_ATOM_COUNT>
9

> <PUBCHEM_ATOM_DEF_STEREO_COUNT>
0

> <PUBCHEM_ATOM_UDEF_STEREO_COUNT>
3

> <PUBCHEM_BOND_DEF_STEREO_COUNT>
0

> <PUBCHEM_BOND_UDEF_STEREO_COUNT>
0

> <PUBCHEM_ISOTOPIC_ATOM_COUNT>
0

> <PUBCHEM_COMPONENT_COUNT>
1

> <PUBCHEM_CACTVS_TAUTO_COUNT>
1

> <PUBCHEM_CONFORMER_ID>
000003B800000006

> <PUBCHEM_MMFF94_ENERGY>
21.2498

> <PUBCHEM_FEATURE_SELFOVERLAP>
40.602

> <PUBCHEM_SHAPE_FINGERPRINT>
10857977 72 18334855064674619032
12423570 1 17047641125696730023
13024252 1 17385999533822627530
137420 1 11246506086741736465
16714656 1 18343861121589371764
18185500 45 17983002650872705500
21040471 1 17632305561682586955
23552423 10 18339913918075053198
29004967 10 18187645855152108616
369184 2 17676480636167513448
5084963 1 17988910180883278178

> <PUBCHEM_SHAPE_MULTIPOLES>
161.74
2.92
1.32
0.93
1.68
0.38
0.02
-0.62
0.65
-0.12
-0.35
-0.38
-0.07
-0.02

> <PUBCHEM_SHAPE_SELFOVERLAP>
320.287

> <PUBCHEM_SHAPE_VOLUME>
97.5

> <PUBCHEM_COORDINATE_TYPE>
2
5
10

$$$$
