966
  -OEChem-08152603322D

135137  0     1  0  0  0  0  0999 V2000
   13.5664    2.8416    0.0000 S   0  0  0  0  0  0  0  0  0  0  0  0
   26.7906   -6.3387    0.0000 P   0  0  0  0  0  0  0  0  0  0  0  0
   23.5403   -5.4963    0.0000 P   0  0  3  0  0  0  0  0  0  0  0  0
   22.2551   -4.3351    0.0000 P   0  0  3  0  0  0  0  0  0  0  0  0
   24.5436   -8.4171    0.0000 O   0  0  0  0  0  0  0  0  0  0  0  0
   26.8934   -7.3334    0.0000 O   0  0  0  0  0  0  0  0  0  0  0  0
   26.8896   -9.5090    0.0000 O   0  0  0  0  0  0  0  0  0  0  0  0
   23.8477   -6.4479    0.0000 O   0  0  0  0  0  0  0  0  0  0  0  0
   26.6878   -5.3440    0.0000 O   0  0  0  0  0  0  0  0  0  0  0  0
   27.7853   -6.2359    0.0000 O   0  0  0  0  0  0  0  0  0  0  0  0
   23.2329   -4.5447    0.0000 O   0  0  0  0  0  0  0  0  0  0  0  0
   25.7959   -6.4415    0.0000 O   0  0  0  0  0  0  0  0  0  0  0  0
   22.5887   -5.8037    0.0000 O   0  0  0  0  0  0  0  0  0  0  0  0
   21.2774   -4.1255    0.0000 O   0  0  0  0  0  0  0  0  0  0  0  0
   24.4919   -5.1890    0.0000 O   0  0  0  0  0  0  0  0  0  0  0  0
   18.3440   -3.4967    0.0000 O   0  0  0  0  0  0  0  0  0  0  0  0
   22.4647   -3.3573    0.0000 O   0  0  0  0  0  0  0  0  0  0  0  0
   22.0455   -5.3129    0.0000 O   0  0  0  0  0  0  0  0  0  0  0  0
   19.3775   -1.0612    0.0000 O   0  0  0  0  0  0  0  0  0  0  0  0
   16.8071    1.2612    0.0000 O   0  0  0  0  0  0  0  0  0  0  0  0
   11.9182    2.3093    0.0000 O   0  0  0  0  0  0  0  0  0  0  0  0
   24.8194  -10.1777    0.0000 N   0  0  0  0  0  0  0  0  0  0  0  0
   24.8194  -11.7871    0.0000 N   0  0  0  0  0  0  0  0  0  0  0  0
   23.0071   -9.9824    0.0000 N   0  0  0  0  0  0  0  0  0  0  0  0
   22.1411  -11.4824    0.0000 N   0  0  0  0  0  0  0  0  0  0  0  0
   23.0071  -12.9824    0.0000 N   0  0  0  0  0  0  0  0  0  0  0  0
   17.7293   -1.5935    0.0000 N   0  0  0  0  0  0  0  0  0  0  0  0
   15.1589    0.7289    0.0000 N   0  0  0  0  0  0  0  0  0  0  0  0
   26.0833   -7.9198    0.0000 C   0  0  3  0  0  0  0  0  0  0  0  0
   26.0816   -8.9198    0.0000 C   0  0  3  0  0  0  0  0  0  0  0  0
   25.1328   -7.6091    0.0000 C   0  0  3  0  0  0  0  0  0  0  0  0
   25.1300   -9.2271    0.0000 C   0  0  3  0  0  0  0  0  0  0  0  0
   24.8255   -6.6575    0.0000 C   0  0  0  0  0  0  0  0  0  0  0  0
   23.8731  -10.4824    0.0000 C   0  0  0  0  0  0  0  0  0  0  0  0
   25.4030  -10.9824    0.0000 C   0  0  0  0  0  0  0  0  0  0  0  0
   23.8731  -11.4824    0.0000 C   0  0  0  0  0  0  0  0  0  0  0  0
   23.0071  -11.9824    0.0000 C   0  0  0  0  0  0  0  0  0  0  0  0
   19.9922   -2.9643    0.0000 C   0  0  0  0  0  0  0  0  0  0  0  0
   22.1411  -10.4824    0.0000 C   0  0  0  0  0  0  0  0  0  0  0  0
   20.9700   -3.1739    0.0000 C   0  0  0  0  0  0  0  0  0  0  0  0
   19.0144   -2.7547    0.0000 C   0  0  3  0  0  0  0  0  0  0  0  0
   20.2018   -1.9865    0.0000 C   0  0  0  0  0  0  0  0  0  0  0  0
   19.7826   -3.9421    0.0000 C   0  0  0  0  0  0  0  0  0  0  0  0
   18.7070   -1.8031    0.0000 C   0  0  0  0  0  0  0  0  0  0  0  0
   17.4219   -0.6419    0.0000 C   0  0  0  0  0  0  0  0  0  0  0  0
    4.5703   10.9700    0.0000 C   0  0  0  0  0  0  0  0  0  0  0  0
    4.8777   10.0184    0.0000 C   0  0  0  0  0  0  0  0  0  0  0  0
    9.7109    6.3252    0.0000 C   0  0  0  0  0  0  0  0  0  0  0  0
   10.0183    5.3736    0.0000 C   0  0  0  0  0  0  0  0  0  0  0  0
    3.5925   11.1796    0.0000 C   0  0  0  0  0  0  0  0  0  0  0  0
    5.8555    9.8088    0.0000 C   0  0  0  0  0  0  0  0  0  0  0  0
    8.7332    6.5348    0.0000 C   0  0  0  0  0  0  0  0  0  0  0  0
   16.4441   -0.4323    0.0000 C   0  0  0  0  0  0  0  0  0  0  0  0
   10.9961    5.1640    0.0000 C   0  0  0  0  0  0  0  0  0  0  0  0
    3.2852   12.1312    0.0000 C   0  0  0  0  0  0  0  0  0  0  0  0
    6.1628    8.8572    0.0000 C   0  0  0  0  0  0  0  0  0  0  0  0
    8.4258    7.4864    0.0000 C   0  0  0  0  0  0  0  0  0  0  0  0
   11.3035    4.2124    0.0000 C   0  0  0  0  0  0  0  0  0  0  0  0
    2.3074   12.3408    0.0000 C   0  0  0  0  0  0  0  0  0  0  0  0
    7.1406    8.6476    0.0000 C   0  0  0  0  0  0  0  0  0  0  0  0
    7.4480    7.6960    0.0000 C   0  0  0  0  0  0  0  0  0  0  0  0
   12.2813    4.0028    0.0000 C   0  0  0  0  0  0  0  0  0  0  0  0
   16.1367    0.5193    0.0000 C   0  0  0  0  0  0  0  0  0  0  0  0
    2.0000   13.2924    0.0000 C   0  0  0  0  0  0  0  0  0  0  0  0
   12.5886    3.0513    0.0000 C   0  0  0  0  0  0  0  0  0  0  0  0
   14.8516    1.6805    0.0000 C   0  0  0  0  0  0  0  0  0  0  0  0
   13.8738    1.8901    0.0000 C   0  0  0  0  0  0  0  0  0  0  0  0
   25.9874   -7.3072    0.0000 H   0  0  0  0  0  0  0  0  0  0  0  0
   26.6345   -8.6393    0.0000 H   0  0  0  0  0  0  0  0  0  0  0  0
   24.5206   -7.5111    0.0000 H   0  0  0  0  0  0  0  0  0  0  0  0
   24.5175   -9.3231    0.0000 H   0  0  0  0  0  0  0  0  0  0  0  0
   25.4396   -6.5723    0.0000 H   0  0  0  0  0  0  0  0  0  0  0  0
   24.8482   -6.0379    0.0000 H   0  0  0  0  0  0  0  0  0  0  0  0
   27.4564   -9.2578    0.0000 H   0  0  0  0  0  0  0  0  0  0  0  0
   26.0230  -10.9824    0.0000 H   0  0  0  0  0  0  0  0  0  0  0  0
   27.1900   -4.9804    0.0000 H   0  0  0  0  0  0  0  0  0  0  0  0
   28.1488   -6.7381    0.0000 H   0  0  0  0  0  0  0  0  0  0  0  0
   21.5841   -3.0887    0.0000 H   0  0  0  0  0  0  0  0  0  0  0  0
   20.9927   -2.5544    0.0000 H   0  0  0  0  0  0  0  0  0  0  0  0
   19.2050   -3.3447    0.0000 H   0  0  0  0  0  0  0  0  0  0  0  0
   21.6042  -10.1724    0.0000 H   0  0  0  0  0  0  0  0  0  0  0  0
   20.8080   -2.1165    0.0000 H   0  0  0  0  0  0  0  0  0  0  0  0
   20.3318   -1.3803    0.0000 H   0  0  0  0  0  0  0  0  0  0  0  0
   19.5956   -1.8566    0.0000 H   0  0  0  0  0  0  0  0  0  0  0  0
   19.1764   -3.8122    0.0000 H   0  0  0  0  0  0  0  0  0  0  0  0
   19.6526   -4.5483    0.0000 H   0  0  0  0  0  0  0  0  0  0  0  0
   20.3888   -4.0721    0.0000 H   0  0  0  0  0  0  0  0  0  0  0  0
   22.4588   -6.4099    0.0000 H   0  0  0  0  0  0  0  0  0  0  0  0
   22.4702  -13.2924    0.0000 H   0  0  0  0  0  0  0  0  0  0  0  0
   23.5441  -13.2924    0.0000 H   0  0  0  0  0  0  0  0  0  0  0  0
   17.7378   -3.3668    0.0000 H   0  0  0  0  0  0  0  0  0  0  0  0
   17.3136   -2.0536    0.0000 H   0  0  0  0  0  0  0  0  0  0  0  0
   23.0547   -3.1668    0.0000 H   0  0  0  0  0  0  0  0  0  0  0  0
   18.0360   -0.5567    0.0000 H   0  0  0  0  0  0  0  0  0  0  0  0
   17.4446   -0.0224    0.0000 H   0  0  0  0  0  0  0  0  0  0  0  0
    5.1844   11.0552    0.0000 H   0  0  0  0  0  0  0  0  0  0  0  0
    4.5930   11.5896    0.0000 H   0  0  0  0  0  0  0  0  0  0  0  0
    4.2636    9.9332    0.0000 H   0  0  0  0  0  0  0  0  0  0  0  0
    4.8550    9.3988    0.0000 H   0  0  0  0  0  0  0  0  0  0  0  0
   10.3251    6.4105    0.0000 H   0  0  0  0  0  0  0  0  0  0  0  0
    9.7337    6.9448    0.0000 H   0  0  0  0  0  0  0  0  0  0  0  0
    9.4042    5.2884    0.0000 H   0  0  0  0  0  0  0  0  0  0  0  0
    9.9956    4.7541    0.0000 H   0  0  0  0  0  0  0  0  0  0  0  0
    2.9784   11.0944    0.0000 H   0  0  0  0  0  0  0  0  0  0  0  0
    3.5698   10.5600    0.0000 H   0  0  0  0  0  0  0  0  0  0  0  0
    6.4696    9.8940    0.0000 H   0  0  0  0  0  0  0  0  0  0  0  0
    5.8782   10.4284    0.0000 H   0  0  0  0  0  0  0  0  0  0  0  0
    8.1190    6.4496    0.0000 H   0  0  0  0  0  0  0  0  0  0  0  0
    8.7105    5.9152    0.0000 H   0  0  0  0  0  0  0  0  0  0  0  0
   11.6102    5.2493    0.0000 H   0  0  0  0  0  0  0  0  0  0  0  0
   11.0188    5.7836    0.0000 H   0  0  0  0  0  0  0  0  0  0  0  0
   15.8300   -0.5176    0.0000 H   0  0  0  0  0  0  0  0  0  0  0  0
   16.4214   -1.0519    0.0000 H   0  0  0  0  0  0  0  0  0  0  0  0
    3.8993   12.2164    0.0000 H   0  0  0  0  0  0  0  0  0  0  0  0
    3.3079   12.7508    0.0000 H   0  0  0  0  0  0  0  0  0  0  0  0
    5.5487    8.7720    0.0000 H   0  0  0  0  0  0  0  0  0  0  0  0
    6.1401    8.2376    0.0000 H   0  0  0  0  0  0  0  0  0  0  0  0
    9.0399    7.5716    0.0000 H   0  0  0  0  0  0  0  0  0  0  0  0
    8.4485    8.1060    0.0000 H   0  0  0  0  0  0  0  0  0  0  0  0
   10.6894    4.1272    0.0000 H   0  0  0  0  0  0  0  0  0  0  0  0
   11.2808    3.5929    0.0000 H   0  0  0  0  0  0  0  0  0  0  0  0
    1.6933   12.2556    0.0000 H   0  0  0  0  0  0  0  0  0  0  0  0
    2.2847   11.7212    0.0000 H   0  0  0  0  0  0  0  0  0  0  0  0
    7.5563    9.1076    0.0000 H   0  0  0  0  0  0  0  0  0  0  0  0
    7.0323    7.2360    0.0000 H   0  0  0  0  0  0  0  0  0  0  0  0
   12.8954    4.0881    0.0000 H   0  0  0  0  0  0  0  0  0  0  0  0
   12.3040    4.6224    0.0000 H   0  0  0  0  0  0  0  0  0  0  0  0
    2.5900   13.4830    0.0000 H   0  0  0  0  0  0  0  0  0  0  0  0
    1.8094   13.8824    0.0000 H   0  0  0  0  0  0  0  0  0  0  0  0
    1.4100   13.1018    0.0000 H   0  0  0  0  0  0  0  0  0  0  0  0
   14.7433    0.2688    0.0000 H   0  0  0  0  0  0  0  0  0  0  0  0
   15.4657    1.7657    0.0000 H   0  0  0  0  0  0  0  0  0  0  0  0
   14.8743    2.3000    0.0000 H   0  0  0  0  0  0  0  0  0  0  0  0
   13.2597    1.8048    0.0000 H   0  0  0  0  0  0  0  0  0  0  0  0
   13.8511    1.2705    0.0000 H   0  0  0  0  0  0  0  0  0  0  0  0
  1 65  1  0  0  0  0
  1 67  1  0  0  0  0
  2  6  1  0  0  0  0
  2  9  1  0  0  0  0
  2 10  1  0  0  0  0
  2 12  2  0  0  0  0
  3  8  1  0  0  0  0
  3 11  1  0  0  0  0
  3 13  1  0  0  0  0
  3 15  2  0  0  0  0
  4 11  1  0  0  0  0
  4 14  1  0  0  0  0
  4 17  1  0  0  0  0
  4 18  2  0  0  0  0
  5 31  1  0  0  0  0
  5 32  1  0  0  0  0
  6 29  1  0  0  0  0
  7 30  1  0  0  0  0
  7 74  1  0  0  0  0
  8 33  1  0  0  0  0
  9 76  1  0  0  0  0
 10 77  1  0  0  0  0
 13 88  1  0  0  0  0
 14 40  1  0  0  0  0
 16 41  1  0  0  0  0
 16 91  1  0  0  0  0
 17 93  1  0  0  0  0
 19 44  2  0  0  0  0
 20 63  2  0  0  0  0
 21 65  2  0  0  0  0
 22 32  1  0  0  0  0
 22 34  1  0  0  0  0
 22 35  1  0  0  0  0
 23 35  2  0  0  0  0
 23 36  1  0  0  0  0
 24 34  2  0  0  0  0
 24 39  1  0  0  0  0
 25 37  1  0  0  0  0
 25 39  2  0  0  0  0
 26 37  1  0  0  0  0
 26 89  1  0  0  0  0
 26 90  1  0  0  0  0
 27 44  1  0  0  0  0
 27 45  1  0  0  0  0
 27 92  1  0  0  0  0
 28 63  1  0  0  0  0
 28 66  1  0  0  0  0
 28131  1  0  0  0  0
 29 30  1  0  0  0  0
 29 31  1  0  0  0  0
 29 68  1  0  0  0  0
 30 32  1  0  0  0  0
 30 69  1  0  0  0  0
 31 33  1  0  0  0  0
 31 70  1  0  0  0  0
 32 71  1  0  0  0  0
 33 72  1  0  0  0  0
 33 73  1  0  0  0  0
 34 36  1  0  0  0  0
 35 75  1  0  0  0  0
 36 37  2  0  0  0  0
 38 40  1  0  0  0  0
 38 41  1  0  0  0  0
 38 42  1  0  0  0  0
 38 43  1  0  0  0  0
 39 81  1  0  0  0  0
 40 78  1  0  0  0  0
 40 79  1  0  0  0  0
 41 44  1  0  0  0  0
 41 80  1  0  0  0  0
 42 82  1  0  0  0  0
 42 83  1  0  0  0  0
 42 84  1  0  0  0  0
 43 85  1  0  0  0  0
 43 86  1  0  0  0  0
 43 87  1  0  0  0  0
 45 53  1  0  0  0  0
 45 94  1  0  0  0  0
 45 95  1  0  0  0  0
 46 47  1  0  0  0  0
 46 50  1  0  0  0  0
 46 96  1  0  0  0  0
 46 97  1  0  0  0  0
 47 51  1  0  0  0  0
 47 98  1  0  0  0  0
 47 99  1  0  0  0  0
 48 49  1  0  0  0  0
 48 52  1  0  0  0  0
 48100  1  0  0  0  0
 48101  1  0  0  0  0
 49 54  1  0  0  0  0
 49102  1  0  0  0  0
 49103  1  0  0  0  0
 50 55  1  0  0  0  0
 50104  1  0  0  0  0
 50105  1  0  0  0  0
 51 56  1  0  0  0  0
 51106  1  0  0  0  0
 51107  1  0  0  0  0
 52 57  1  0  0  0  0
 52108  1  0  0  0  0
 52109  1  0  0  0  0
 53 63  1  0  0  0  0
 53112  1  0  0  0  0
 53113  1  0  0  0  0
 54 58  1  0  0  0  0
 54110  1  0  0  0  0
 54111  1  0  0  0  0
 55 59  1  0  0  0  0
 55114  1  0  0  0  0
 55115  1  0  0  0  0
 56 60  1  0  0  0  0
 56116  1  0  0  0  0
 56117  1  0  0  0  0
 57 61  1  0  0  0  0
 57118  1  0  0  0  0
 57119  1  0  0  0  0
 58 62  1  0  0  0  0
 58120  1  0  0  0  0
 58121  1  0  0  0  0
 59 64  1  0  0  0  0
 59122  1  0  0  0  0
 59123  1  0  0  0  0
 60 61  2  3  0  0  0
 60124  1  0  0  0  0
 61125  1  0  0  0  0
 62 65  1  0  0  0  0
 62126  1  0  0  0  0
 62127  1  0  0  0  0
 64128  1  0  0  0  0
 64129  1  0  0  0  0
 64130  1  0  0  0  0
 66 67  1  0  0  0  0
 66132  1  0  0  0  0
 66133  1  0  0  0  0
 67134  1  0  0  0  0
 67135  1  0  0  0  0
M  END
> <PUBCHEM_COMPOUND_CID>
966

> <PUBCHEM_COMPOUND_CANONICALIZED>
1

> <PUBCHEM_CACTVS_COMPLEXITY>
1700

> <PUBCHEM_CACTVS_HBOND_ACCEPTOR>
22

> <PUBCHEM_CACTVS_HBOND_DONOR>
9

> <PUBCHEM_CACTVS_ROTATABLE_BOND>
35

> <PUBCHEM_CACTVS_SUBSKEYS>
AAADcfB/vgNAAAAAAAAAAAAAAAAAAWJAAAAsAAAAAAAAAFgB+AAAHgQQCCAADhzl1waH8L/MFxioQSdzdIKAgC0xELAJWKFoVBiDWBpgyUAeRAgPlgL7ACP6uIKJAAAAAAAAAAAAAAAAAAAAAAAAAAAAAA==

> <PUBCHEM_IUPAC_OPENEYE_NAME>
S-[2-[3-[[4-[[[5-(6-aminopurin-9-yl)-4-hydroxy-3-phosphonooxy-tetrahydrofuran-2-yl]methoxy-hydroxy-phosphoryl]oxy-hydroxy-phosphoryl]oxy-2-hydroxy-3,3-dimethyl-butanoyl]amino]propanoylamino]ethyl] octadec-9-enethioate

> <PUBCHEM_IUPAC_CAS_NAME>
9-octadecenethioic acid S-[2-[[3-[[4-[[[5-(6-aminopurin-9-yl)-4-hydroxy-3-phosphonooxy-2-oxolanyl]methoxy-hydroxyphosphoryl]oxy-hydroxyphosphoryl]oxy-2-hydroxy-3,3-dimethyl-1-oxobutyl]amino]-1-oxopropyl]amino]ethyl] ester

> <PUBCHEM_IUPAC_NAME_MARKUP>
<I>S</I>-[2-[3-[[4-[[[5-(6-aminopurin-9-yl)-4-hydroxy-3-phosphonooxyoxolan-2-yl]methoxy-hydroxyphosphoryl]oxy-hydroxyphosphoryl]oxy-2-hydroxy-3,3-dimethylbutanoyl]amino]propanoylamino]ethyl] octadec-9-enethioate

> <PUBCHEM_IUPAC_NAME>
S-[2-[3-[[4-[[[5-(6-aminopurin-9-yl)-4-hydroxy-3-phosphonooxyoxolan-2-yl]methoxy-hydroxyphosphoryl]oxy-hydroxyphosphoryl]oxy-2-hydroxy-3,3-dimethylbutanoyl]amino]propanoylamino]ethyl] octadec-9-enethioate

> <PUBCHEM_IUPAC_SYSTEMATIC_NAME>
S-[2-[3-[[4-[[[5-(6-aminopurin-9-yl)-4-oxidanyl-3-phosphonooxy-oxolan-2-yl]methoxy-oxidanyl-phosphoryl]oxy-oxidanyl-phosphoryl]oxy-3,3-dimethyl-2-oxidanyl-butanoyl]amino]propanoylamino]ethyl] octadec-9-enethioate

> <PUBCHEM_IUPAC_TRADITIONAL_NAME>
octadec-9-enethioic acid S-[2-[3-[[4-[[(5-adenin-9-yl-4-hydroxy-3-phosphonooxy-tetrahydrofuran-2-yl)methoxy-hydroxy-phosphoryl]oxy-hydroxy-phosphoryl]oxy-2-hydroxy-3,3-dimethyl-butanoyl]amino]propanoylamino]ethyl] ester

> <PUBCHEM_IUPAC_INCHI>
InChI=1S/C39H68N7O17P3S/c1-4-5-6-7-8-9-10-11-12-13-14-15-16-17-18-19-30(48)67-23-22-41-29(47)20-21-42-37(51)34(50)39(2,3)25-60-66(57,58)63-65(55,56)59-24-28-33(62-64(52,53)54)32(49)38(61-28)46-27-45-31-35(40)43-26-44-36(31)46/h11-12,26-28,32-34,38,49-50H,4-10,13-25H2,1-3H3,(H,41,47)(H,42,51)(H,55,56)(H,57,58)(H2,40,43,44)(H2,52,53,54)

> <PUBCHEM_IUPAC_INCHIKEY>
XDUHQPOXLUAVEE-UHFFFAOYSA-N

> <PUBCHEM_XLOGP3_AA>
1.8

> <PUBCHEM_EXACT_MASS>
1031.36052589

> <PUBCHEM_MOLECULAR_FORMULA>
C39H68N7O17P3S

> <PUBCHEM_MOLECULAR_WEIGHT>
1032.0

> <PUBCHEM_SMILES>
CCCCCCCCC=CCCCCCCCC(=O)SCCNC(=O)CCNC(=O)C(C(C)(C)COP(=O)(O)OP(=O)(O)OCC1C(C(C(O1)N2C=NC3=C(N=CN=C32)N)O)OP(=O)(O)O)O

> <PUBCHEM_CONNECTIVITY_SMILES>
CCCCCCCCC=CCCCCCCCC(=O)SCCNC(=O)CCNC(=O)C(C(C)(C)COP(=O)(O)OP(=O)(O)OCC1C(C(C(O1)N2C=NC3=C(N=CN=C32)N)O)OP(=O)(O)O)O

> <PUBCHEM_CACTVS_TPSA>
389

> <PUBCHEM_MONOISOTOPIC_WEIGHT>
1031.36052589

> <PUBCHEM_TOTAL_CHARGE>
0

> <PUBCHEM_HEAVY_ATOM_COUNT>
67

> <PUBCHEM_ATOM_DEF_STEREO_COUNT>
0

> <PUBCHEM_ATOM_UDEF_STEREO_COUNT>
5

> <PUBCHEM_BOND_DEF_STEREO_COUNT>
0

> <PUBCHEM_BOND_UDEF_STEREO_COUNT>
1

> <PUBCHEM_ISOTOPIC_ATOM_COUNT>
0

> <PUBCHEM_COMPONENT_COUNT>
1

> <PUBCHEM_CACTVS_TAUTO_COUNT>
-1

> <PUBCHEM_COORDINATE_TYPE>
1
5
255

> <PUBCHEM_BONDANNOTATIONS>
41  16  3
32  22  3
22  34  8
22  35  8
23  35  8
23  36  8
24  34  8
24  39  8
25  37  8
25  39  8
31  33  3
34  36  8
36  37  8
29  6  3
60  61  1
30  7  3

$$$$
