15265784
  -OEChem-08152605132D

  5  4  0     0  0  0  0  0  0999 V2000
    2.7071    0.0000    0.0000 Os  0  0  0  0  0  0  0  0  0  0  0  0
    2.0000   -0.7071    0.0000 F   0  0  0  0  0  0  0  0  0  0  0  0
    3.4142   -0.7071    0.0000 F   0  0  0  0  0  0  0  0  0  0  0  0
    3.4142    0.7071    0.0000 F   0  0  0  0  0  0  0  0  0  0  0  0
    2.0000    0.7071    0.0000 F   0  0  0  0  0  0  0  0  0  0  0  0
  1  2  1  1  0  0  0
  1  3  1  1  0  0  0
  1  4  1  6  0  0  0
  1  5  1  6  0  0  0
M  END
> <PUBCHEM_COMPOUND_CID>
15265784

> <PUBCHEM_COMPOUND_CANONICALIZED>
1

> <PUBCHEM_CACTVS_COMPLEXITY>
19.1

> <PUBCHEM_CACTVS_HBOND_ACCEPTOR>
4

> <PUBCHEM_CACTVS_HBOND_DONOR>
0

> <PUBCHEM_CACTVS_ROTATABLE_BOND>
0

> <PUBCHEM_CACTVS_SUBSKEYS>
AAADcQAAAcAAAAAAAAAAEAAAAAAAAAAAAAAAAAAAAAAAAAAAAAAAAAAAAAAAAAAAAAAAAAAAAAAAAAAAAAAAAAAAAAAAAAAAAAAAAAAAAAAAAAAAAAAAAAAAAAAAAAAAAAAAAAAAAAAAAAAAAAAAAAAAAA==

> <PUBCHEM_IUPAC_OPENEYE_NAME>
tetrafluoroosmium

> <PUBCHEM_IUPAC_CAS_NAME>
tetrafluoroosmium

> <PUBCHEM_IUPAC_NAME_MARKUP>
tetrafluoroosmium

> <PUBCHEM_IUPAC_NAME>
tetrafluoroosmium

> <PUBCHEM_IUPAC_SYSTEMATIC_NAME>
tetrakis(fluoranyl)osmium

> <PUBCHEM_IUPAC_TRADITIONAL_NAME>
tetrafluoroosmium

> <PUBCHEM_IUPAC_INCHI>
InChI=1S/4FH.Os/h4*1H;/q;;;;+4/p-4

> <PUBCHEM_IUPAC_INCHIKEY>
CSRXPKRQTCTNOE-UHFFFAOYSA-J

> <PUBCHEM_EXACT_MASS>
267.95509

> <PUBCHEM_MOLECULAR_FORMULA>
F4Os

> <PUBCHEM_MOLECULAR_WEIGHT>
266.2

> <PUBCHEM_SMILES>
F[Os](F)(F)F

> <PUBCHEM_CONNECTIVITY_SMILES>
F[Os](F)(F)F

> <PUBCHEM_CACTVS_TPSA>
0

> <PUBCHEM_MONOISOTOPIC_WEIGHT>
267.95509

> <PUBCHEM_TOTAL_CHARGE>
0

> <PUBCHEM_HEAVY_ATOM_COUNT>
5

> <PUBCHEM_ATOM_DEF_STEREO_COUNT>
0

> <PUBCHEM_ATOM_UDEF_STEREO_COUNT>
0

> <PUBCHEM_BOND_DEF_STEREO_COUNT>
0

> <PUBCHEM_BOND_UDEF_STEREO_COUNT>
0

> <PUBCHEM_ISOTOPIC_ATOM_COUNT>
0

> <PUBCHEM_COMPONENT_COUNT>
1

> <PUBCHEM_CACTVS_TAUTO_COUNT>
-1

> <PUBCHEM_COORDINATE_TYPE>
1
5
255

> <PUBCHEM_BONDANNOTATIONS>
1  2  5
1  3  5
1  4  6
1  5  6

$$$$
