4070891
  -OEChem-08152605562D

  5  4  0     0  0  0  0  0  0999 V2000
    2.7071    0.0000    0.0000 Os  0  0  0  0  0  0  0  0  0  0  0  0
    2.0000   -0.7071    0.0000 Cl  0  0  0  0  0  0  0  0  0  0  0  0
    3.4142   -0.7071    0.0000 Cl  0  0  0  0  0  0  0  0  0  0  0  0
    3.4142    0.7071    0.0000 Cl  0  0  0  0  0  0  0  0  0  0  0  0
    2.0000    0.7071    0.0000 Cl  0  0  0  0  0  0  0  0  0  0  0  0
  1  2  1  1  0  0  0
  1  3  1  1  0  0  0
  1  4  1  6  0  0  0
  1  5  1  6  0  0  0
M  END
> <PUBCHEM_COMPOUND_CID>
4070891

> <PUBCHEM_COMPOUND_CANONICALIZED>
1

> <PUBCHEM_CACTVS_COMPLEXITY>
19.1

> <PUBCHEM_CACTVS_HBOND_ACCEPTOR>
0

> <PUBCHEM_CACTVS_HBOND_DONOR>
0

> <PUBCHEM_CACTVS_ROTATABLE_BOND>
0

> <PUBCHEM_CACTVS_SUBSKEYS>
AAADcQAAAAAHAAAAAAAAEAAAAAAAAAAAAAAAAAAAAAAAAAAAAAAAAAAAAAAAAAAAAAAAAAAAAAAAAAAAAAAAAAAAAAAAAAAAAAAAAAAAAAAAAAAAAAAAAAAAAAAAAAAAAAAAAAAAAAAAAAAAAAAAAAAAAA==

> <PUBCHEM_IUPAC_OPENEYE_NAME>
tetrachloroosmium

> <PUBCHEM_IUPAC_CAS_NAME>
tetrachloroosmium

> <PUBCHEM_IUPAC_NAME_MARKUP>
tetrachloroosmium

> <PUBCHEM_IUPAC_NAME>
tetrachloroosmium

> <PUBCHEM_IUPAC_SYSTEMATIC_NAME>
tetrakis(chloranyl)osmium

> <PUBCHEM_IUPAC_TRADITIONAL_NAME>
tetrachloroosmium

> <PUBCHEM_IUPAC_INCHI>
InChI=1S/4ClH.Os/h4*1H;/q;;;;+4/p-4

> <PUBCHEM_IUPAC_INCHIKEY>
IHUHXSNGMLUYES-UHFFFAOYSA-J

> <PUBCHEM_EXACT_MASS>
333.83394

> <PUBCHEM_MOLECULAR_FORMULA>
Cl4Os

> <PUBCHEM_MOLECULAR_WEIGHT>
332.0

> <PUBCHEM_SMILES>
Cl[Os](Cl)(Cl)Cl

> <PUBCHEM_CONNECTIVITY_SMILES>
Cl[Os](Cl)(Cl)Cl

> <PUBCHEM_CACTVS_TPSA>
0

> <PUBCHEM_MONOISOTOPIC_WEIGHT>
331.83689

> <PUBCHEM_TOTAL_CHARGE>
0

> <PUBCHEM_HEAVY_ATOM_COUNT>
5

> <PUBCHEM_ATOM_DEF_STEREO_COUNT>
0

> <PUBCHEM_ATOM_UDEF_STEREO_COUNT>
0

> <PUBCHEM_BOND_DEF_STEREO_COUNT>
0

> <PUBCHEM_BOND_UDEF_STEREO_COUNT>
0

> <PUBCHEM_ISOTOPIC_ATOM_COUNT>
0

> <PUBCHEM_COMPONENT_COUNT>
1

> <PUBCHEM_CACTVS_TAUTO_COUNT>
-1

> <PUBCHEM_COORDINATE_TYPE>
1
5
255

> <PUBCHEM_BONDANNOTATIONS>
1  2  5
1  3  5
1  4  6
1  5  6

$$$$
