10892861
  -OEChem-08152604472D

 11  5  0     0  0  0  0  0  0999 V2000
    3.9890   -0.0646    0.0000 Os  0  0  0  0  0  0  0  0  0  0  0  0
    5.7211    0.9354    0.0000 O   0  3  0  0  0  0  0  0  0  0  0  0
    2.0000    0.1445    0.0000 O   0  3  0  0  0  0  0  0  0  0  0  0
    3.1756   -1.8917    0.0000 O   0  3  0  0  0  0  0  0  0  0  0  0
    3.5732    1.8917    0.0000 O   0  3  0  0  0  0  0  0  0  0  0  0
    5.4753   -1.4029    0.0000 O   0  3  0  0  0  0  0  0  0  0  0  0
    4.8551    0.4354    0.0000 C   0  5  0  0  0  0  0  0  0  0  0  0
    2.9945    0.0399    0.0000 C   0  5  0  0  0  0  0  0  0  0  0  0
    3.5823   -0.9781    0.0000 C   0  5  0  0  0  0  0  0  0  0  0  0
    3.7811    0.9135    0.0000 C   0  5  0  0  0  0  0  0  0  0  0  0
    4.7322   -0.7337    0.0000 C   0  5  0  0  0  0  0  0  0  0  0  0
  2  7  3  0  0  0  0
  3  8  3  0  0  0  0
  4  9  3  0  0  0  0
  5 10  3  0  0  0  0
  6 11  3  0  0  0  0
M  CHG  8   2   1   3   1   4   1   5   1   6   1   7  -1   8  -1   9  -1
M  CHG  2  10  -1  11  -1
M  END
> <PUBCHEM_COMPOUND_CID>
10892861

> <PUBCHEM_COMPOUND_CANONICALIZED>
1

> <PUBCHEM_CACTVS_COMPLEXITY>
10

> <PUBCHEM_CACTVS_HBOND_ACCEPTOR>
5

> <PUBCHEM_CACTVS_HBOND_DONOR>
0

> <PUBCHEM_CACTVS_ROTATABLE_BOND>
0

> <PUBCHEM_CACTVS_SUBSKEYS>
AAADcQBgOAAAAAAAAAAAEAAAAAAAAAAAAAAAAAAAAAAAAAAAAAAAAgAAAAAAAAAAAAAAAAAAAAAAAAAAAAAAAAAAAAAAAAAAAAAAAAAAAAAAAAAAAAAAAAAAAAAAAAAAAAAAAAAAAAAAAAAAAAAAAAAAAA==

> <PUBCHEM_IUPAC_OPENEYE_NAME>
carbon monoxide;osmium

> <PUBCHEM_IUPAC_CAS_NAME>
carbon monoxide;osmium

> <PUBCHEM_IUPAC_NAME_MARKUP>
carbon monoxide;osmium

> <PUBCHEM_IUPAC_NAME>
carbon monoxide;osmium

> <PUBCHEM_IUPAC_SYSTEMATIC_NAME>
carbon monoxide;osmium

> <PUBCHEM_IUPAC_TRADITIONAL_NAME>
carbon monoxide;osmium

> <PUBCHEM_IUPAC_INCHI>
InChI=1S/5CO.Os/c5*1-2;

> <PUBCHEM_IUPAC_INCHIKEY>
RLUHVGZGDXPTEM-UHFFFAOYSA-N

> <PUBCHEM_EXACT_MASS>
331.93605

> <PUBCHEM_MOLECULAR_FORMULA>
C5O5Os

> <PUBCHEM_MOLECULAR_WEIGHT>
330.3

> <PUBCHEM_SMILES>
[C-]#[O+].[C-]#[O+].[C-]#[O+].[C-]#[O+].[C-]#[O+].[Os]

> <PUBCHEM_CONNECTIVITY_SMILES>
[C-]#[O+].[C-]#[O+].[C-]#[O+].[C-]#[O+].[C-]#[O+].[Os]

> <PUBCHEM_CACTVS_TPSA>
5

> <PUBCHEM_MONOISOTOPIC_WEIGHT>
331.93605

> <PUBCHEM_TOTAL_CHARGE>
0

> <PUBCHEM_HEAVY_ATOM_COUNT>
11

> <PUBCHEM_ATOM_DEF_STEREO_COUNT>
0

> <PUBCHEM_ATOM_UDEF_STEREO_COUNT>
0

> <PUBCHEM_BOND_DEF_STEREO_COUNT>
0

> <PUBCHEM_BOND_UDEF_STEREO_COUNT>
0

> <PUBCHEM_ISOTOPIC_ATOM_COUNT>
0

> <PUBCHEM_COMPONENT_COUNT>
6

> <PUBCHEM_CACTVS_TAUTO_COUNT>
-1

> <PUBCHEM_COORDINATE_TYPE>
1
5
255

$$$$
