30318
  -OEChem-08152604582D

  5  4  0     0  0  0  0  0  0999 V2000
    2.7071    0.0000    0.0000 Os  0  0  0  0  0  0  0  0  0  0  0  0
    2.0000   -0.7071    0.0000 O   0  0  0  0  0  0  0  0  0  0  0  0
    3.4142   -0.7071    0.0000 O   0  0  0  0  0  0  0  0  0  0  0  0
    3.4142    0.7071    0.0000 O   0  0  0  0  0  0  0  0  0  0  0  0
    2.0000    0.7071    0.0000 O   0  0  0  0  0  0  0  0  0  0  0  0
  1  2  2  1  0  0  0
  1  3  2  1  0  0  0
  1  4  2  6  0  0  0
  1  5  2  6  0  0  0
M  END
> <PUBCHEM_COMPOUND_CID>
30318

> <PUBCHEM_COMPOUND_CANONICALIZED>
1

> <PUBCHEM_CACTVS_COMPLEXITY>
138

> <PUBCHEM_CACTVS_HBOND_ACCEPTOR>
4

> <PUBCHEM_CACTVS_HBOND_DONOR>
0

> <PUBCHEM_CACTVS_ROTATABLE_BOND>
0

> <PUBCHEM_CACTVS_SUBSKEYS>
AAADcQAAOAAAAAAAAAAAEAAAAAAAAAAAAAAAAAAAAAAAAAAAAAAAAAAAAAAAAAAAAAAAAAAAAAAAAAAAAAAAAAAAAAAAAAAAAAAAAAAAAAAAAAAAAAAAAAAAAAAAAAAAAAAAAAAAAAAAAAAAAAAAAAAAAA==

> <PUBCHEM_IUPAC_OPENEYE_NAME>
tetraoxoosmium

> <PUBCHEM_IUPAC_CAS_NAME>
tetraoxoosmium

> <PUBCHEM_IUPAC_NAME_MARKUP>
tetraoxoosmium

> <PUBCHEM_IUPAC_NAME>
tetraoxoosmium

> <PUBCHEM_IUPAC_SYSTEMATIC_NAME>
tetrakis(oxidanylidene)osmium

> <PUBCHEM_IUPAC_TRADITIONAL_NAME>
tetraketoosmium

> <PUBCHEM_IUPAC_INCHI>
InChI=1S/4O.Os

> <PUBCHEM_IUPAC_INCHIKEY>
VUVGYHUDAICLFK-UHFFFAOYSA-N

> <PUBCHEM_EXACT_MASS>
255.94114

> <PUBCHEM_MOLECULAR_FORMULA>
O4Os

> <PUBCHEM_MOLECULAR_WEIGHT>
254.2

> <PUBCHEM_SMILES>
O=[Os](=O)(=O)=O

> <PUBCHEM_CONNECTIVITY_SMILES>
O=[Os](=O)(=O)=O

> <PUBCHEM_CACTVS_TPSA>
68.3

> <PUBCHEM_MONOISOTOPIC_WEIGHT>
255.94114

> <PUBCHEM_TOTAL_CHARGE>
0

> <PUBCHEM_HEAVY_ATOM_COUNT>
5

> <PUBCHEM_ATOM_DEF_STEREO_COUNT>
0

> <PUBCHEM_ATOM_UDEF_STEREO_COUNT>
0

> <PUBCHEM_BOND_DEF_STEREO_COUNT>
0

> <PUBCHEM_BOND_UDEF_STEREO_COUNT>
0

> <PUBCHEM_ISOTOPIC_ATOM_COUNT>
0

> <PUBCHEM_COMPONENT_COUNT>
1

> <PUBCHEM_CACTVS_TAUTO_COUNT>
-1

> <PUBCHEM_COORDINATE_TYPE>
1
5
255

> <PUBCHEM_BONDANNOTATIONS>
1  2  5
1  3  5
1  4  6
1  5  6

$$$$
