57496620
  -OEChem-08152605072D

  9  8  0     0  0  0  0  0  0999 V2000
    2.9659    0.0000    0.0000 Os  0  0  0  0  0  0  0  0  0  0  0  0
    3.8320    0.5000    0.0000 F   0  0  0  0  0  0  0  0  0  0  0  0
    2.0999   -0.5000    0.0000 F   0  0  0  0  0  0  0  0  0  0  0  0
    2.7071   -0.9659    0.0000 F   0  0  0  0  0  0  0  0  0  0  0  0
    2.0000    0.2588    0.0000 F   0  0  0  0  0  0  0  0  0  0  0  0
    3.4659   -0.8660    0.0000 F   0  0  0  0  0  0  0  0  0  0  0  0
    2.4659    0.8660    0.0000 F   0  0  0  0  0  0  0  0  0  0  0  0
    3.9318   -0.2588    0.0000 F   0  0  0  0  0  0  0  0  0  0  0  0
    3.2247    0.9659    0.0000 F   0  0  0  0  0  0  0  0  0  0  0  0
  1  2  1  0  0  0  0
  1  3  1  0  0  0  0
  1  4  1  0  0  0  0
  1  5  1  0  0  0  0
  1  6  1  0  0  0  0
  1  7  1  0  0  0  0
  1  8  1  0  0  0  0
  1  9  1  0  0  0  0
M  END
> <PUBCHEM_COMPOUND_CID>
57496620

> <PUBCHEM_COMPOUND_CANONICALIZED>
1

> <PUBCHEM_CACTVS_COMPLEXITY>
139

> <PUBCHEM_CACTVS_HBOND_ACCEPTOR>
8

> <PUBCHEM_CACTVS_HBOND_DONOR>
0

> <PUBCHEM_CACTVS_ROTATABLE_BOND>
0

> <PUBCHEM_CACTVS_SUBSKEYS>
AAADcQAAAcAAAAAAAAAAEAAAAAAAAAAAAAAAAAAAAAAAAAAAAAAAAAAAAAAAAAAAAAAAAAAAAAAAAAAAAAAAAAAAAAAAAAAAAAAAAAAAAAAAAAAAAAAAAAAAAAAAAAAAAAAAAAAAAAAAAAAAAAAAAAAAAA==

> <PUBCHEM_IUPAC_OPENEYE_NAME>
octafluoroosmium

> <PUBCHEM_IUPAC_CAS_NAME>
octafluoroosmium

> <PUBCHEM_IUPAC_NAME_MARKUP>
octafluoroosmium

> <PUBCHEM_IUPAC_NAME>
octafluoroosmium

> <PUBCHEM_IUPAC_SYSTEMATIC_NAME>
octakis(fluoranyl)osmium

> <PUBCHEM_IUPAC_TRADITIONAL_NAME>
octafluoroosmium

> <PUBCHEM_IUPAC_INCHI>
InChI=1S/8FH.Os/h8*1H;/q;;;;;;;;+8/p-8

> <PUBCHEM_IUPAC_INCHIKEY>
ZTSGTWBSMBQRNE-UHFFFAOYSA-F

> <PUBCHEM_EXACT_MASS>
343.94870

> <PUBCHEM_MOLECULAR_FORMULA>
F8Os

> <PUBCHEM_MOLECULAR_WEIGHT>
342.2

> <PUBCHEM_SMILES>
F[Os](F)(F)(F)(F)(F)(F)F

> <PUBCHEM_CONNECTIVITY_SMILES>
F[Os](F)(F)(F)(F)(F)(F)F

> <PUBCHEM_CACTVS_TPSA>
0

> <PUBCHEM_MONOISOTOPIC_WEIGHT>
343.94870

> <PUBCHEM_TOTAL_CHARGE>
0

> <PUBCHEM_HEAVY_ATOM_COUNT>
9

> <PUBCHEM_ATOM_DEF_STEREO_COUNT>
0

> <PUBCHEM_ATOM_UDEF_STEREO_COUNT>
0

> <PUBCHEM_BOND_DEF_STEREO_COUNT>
0

> <PUBCHEM_BOND_UDEF_STEREO_COUNT>
0

> <PUBCHEM_ISOTOPIC_ATOM_COUNT>
0

> <PUBCHEM_COMPONENT_COUNT>
1

> <PUBCHEM_CACTVS_TAUTO_COUNT>
-1

> <PUBCHEM_COORDINATE_TYPE>
1
5
255

$$$$
