786
  -OEChem-08152603123D

 27 26  0     1  0  0  0  0  0999 V2000
   -1.7631   -1.4349   -0.1833 P   0  0  2  0  0  0  0  0  0  0  0  0
   -2.0888    1.4834   -0.0074 P   0  0  0  0  0  0  0  0  0  0  0  0
   -0.1629   -1.3541   -0.3886 O   0  0  0  0  0  0  0  0  0  0  0  0
   -2.1549   -0.0387    0.5314 O   0  0  0  0  0  0  0  0  0  0  0  0
   -1.9671   -2.5245    0.9950 O   0  0  0  0  0  0  0  0  0  0  0  0
    4.6196    0.8711   -1.1599 O   0  0  0  0  0  0  0  0  0  0  0  0
   -2.5396   -1.7244   -1.4352 O   0  0  0  0  0  0  0  0  0  0  0  0
   -2.7874    2.3244    1.1829 O   0  0  0  0  0  0  0  0  0  0  0  0
   -3.1928    1.5098   -1.1876 O   0  0  0  0  0  0  0  0  0  0  0  0
   -0.7181    1.9493   -0.4008 O   0  0  0  0  0  0  0  0  0  0  0  0
    0.6807   -1.0853    0.7251 C   0  0  0  0  0  0  0  0  0  0  0  0
    2.9846   -0.0541    0.3147 C   0  0  0  0  0  0  0  0  0  0  0  0
    2.0994   -1.0674    0.2517 C   0  0  0  0  0  0  0  0  0  0  0  0
    4.4107   -0.1193   -0.1614 C   0  0  0  0  0  0  0  0  0  0  0  0
    2.5797    1.2646    0.9234 C   0  0  0  0  0  0  0  0  0  0  0  0
    0.5644   -1.8889    1.4595 H   0  0  0  0  0  0  0  0  0  0  0  0
    0.3571   -0.1558    1.1923 H   0  0  0  0  0  0  0  0  0  0  0  0
    2.4422   -2.0039   -0.1869 H   0  0  0  0  0  0  0  0  0  0  0  0
    5.0998    0.0628    0.6698 H   0  0  0  0  0  0  0  0  0  0  0  0
    4.6434   -1.0977   -0.5946 H   0  0  0  0  0  0  0  0  0  0  0  0
    1.8124    1.1794    1.6958 H   0  0  0  0  0  0  0  0  0  0  0  0
    3.4394    1.7316    1.4183 H   0  0  0  0  0  0  0  0  0  0  0  0
    2.2300    1.9496    0.1446 H   0  0  0  0  0  0  0  0  0  0  0  0
   -1.9252   -3.4786    0.7711 H   0  0  0  0  0  0  0  0  0  0  0  0
    5.5504    0.8074   -1.4342 H   0  0  0  0  0  0  0  0  0  0  0  0
   -2.7939    3.3039    1.1319 H   0  0  0  0  0  0  0  0  0  0  0  0
   -3.2864    2.3202   -1.7322 H   0  0  0  0  0  0  0  0  0  0  0  0
  1  3  1  0  0  0  0
  1  4  1  0  0  0  0
  1  5  1  0  0  0  0
  1  7  2  0  0  0  0
  2  4  1  0  0  0  0
  2  8  1  0  0  0  0
  2  9  1  0  0  0  0
  2 10  2  0  0  0  0
  3 11  1  0  0  0  0
  5 24  1  0  0  0  0
  6 14  1  0  0  0  0
  6 25  1  0  0  0  0
  8 26  1  0  0  0  0
  9 27  1  0  0  0  0
 11 13  1  0  0  0  0
 11 16  1  0  0  0  0
 11 17  1  0  0  0  0
 12 13  2  3  0  0  0
 12 14  1  0  0  0  0
 12 15  1  0  0  0  0
 13 18  1  0  0  0  0
 14 19  1  0  0  0  0
 14 20  1  0  0  0  0
 15 21  1  0  0  0  0
 15 22  1  0  0  0  0
 15 23  1  0  0  0  0
M  END
> <PUBCHEM_COMPOUND_CID>
786

> <PUBCHEM_CONFORMER_RMSD>
0.6

> <PUBCHEM_CONFORMER_DIVERSEORDER>
13
8
69
46
50
77
60
70
15
34
38
75
55
57
67
73
48
27
19
5
40
68
31
74
21
72
71
42
58
24
37
59
26
14
66
25
56
52
32
76
16
12
41
54
36
4
3
65
53
35
23
51
29
10
30
20
45
9
2
22
61
44
62
47
28
64
39
33
1
17
49
78
11
6
43
7
63
18

> <PUBCHEM_MMFF94_PARTIAL_CHARGES>
20
1 1.51
10 -0.7
11 0.42
12 -0.28
13 -0.29
14 0.42
15 0.14
18 0.15
2 1.51
24 0.5
25 0.4
26 0.5
27 0.5
3 -0.55
4 -0.54
5 -0.77
6 -0.68
7 -0.7
8 -0.77
9 -0.77

> <PUBCHEM_EFFECTIVE_ROTOR_COUNT>
6

> <PUBCHEM_PHARMACOPHORE_FEATURES>
9
1 10 acceptor
1 15 hydrophobe
1 5 acceptor
1 6 acceptor
1 6 donor
1 7 acceptor
1 8 acceptor
1 9 acceptor
4 2 8 9 10 anion

> <PUBCHEM_HEAVY_ATOM_COUNT>
15

> <PUBCHEM_ATOM_DEF_STEREO_COUNT>
0

> <PUBCHEM_ATOM_UDEF_STEREO_COUNT>
0

> <PUBCHEM_BOND_DEF_STEREO_COUNT>
0

> <PUBCHEM_BOND_UDEF_STEREO_COUNT>
1

> <PUBCHEM_ISOTOPIC_ATOM_COUNT>
0

> <PUBCHEM_COMPONENT_COUNT>
1

> <PUBCHEM_CACTVS_TAUTO_COUNT>
1

> <PUBCHEM_CONFORMER_ID>
000003120000000D

> <PUBCHEM_MMFF94_ENERGY>
-34.2302

> <PUBCHEM_FEATURE_SELFOVERLAP>
45.72

> <PUBCHEM_SHAPE_FINGERPRINT>
10498660 4 18335132098998459156
12932764 1 18060136583107495426
13380535 21 18338804412000467578
13618510 140 18337950065432027272
14123260 362 18113622287348095878
15775835 57 18336831883744984936
17834072 32 18261394412438493468
18186145 218 17417816179690835002
18342897 96 18335415742616928491
20671657 1 18126555722329864218
20711983 171 18410293601687329558
21501502 16 18338509747205817978
21524375 3 18195799670444177739
22620623 9 17130962370685241727
23557571 272 18271529796337880431
4028521 119 18337381669407275301

> <PUBCHEM_SHAPE_MULTIPOLES>
269.44
7.27
2.54
1.12
7.08
0.08
-0.11
2.15
-1.57
-2.69
0.28
-0.32
0.07
-0.31

> <PUBCHEM_SHAPE_SELFOVERLAP>
485.697

> <PUBCHEM_SHAPE_VOLUME>
173.7

> <PUBCHEM_COORDINATE_TYPE>
2
5
10

$$$$
