83469
  -OEChem-08152605402D

  3  2  0     0  0  0  0  0  0999 V2000
    2.8660   -0.2500    0.0000 Pd  0  0  0  0  0  0  0  0  0  0  0  0
    3.7321    0.2500    0.0000 Br  0  0  0  0  0  0  0  0  0  0  0  0
    2.0000    0.2500    0.0000 Br  0  0  0  0  0  0  0  0  0  0  0  0
  1  2  1  0  0  0  0
  1  3  1  0  0  0  0
M  END
> <PUBCHEM_COMPOUND_CID>
83469

> <PUBCHEM_COMPOUND_CANONICALIZED>
1

> <PUBCHEM_CACTVS_COMPLEXITY>
2.8

> <PUBCHEM_CACTVS_HBOND_ACCEPTOR>
0

> <PUBCHEM_CACTVS_HBOND_DONOR>
0

> <PUBCHEM_CACTVS_ROTATABLE_BOND>
0

> <PUBCHEM_CACTVS_SUBSKEYS>
AAADcQAAAAAAGAAAAAgAAAAAAAAAAAAAAAAAAAAAAAAAAAAAAAAAAAAAAAAAAAAAAAAAAAAAAAAAAAAAAAAAAAAAAAAAAAAAAAAAAAAAAAAAAAAAAAAAAAAAAAAAAAAAAAAAAAAAAAAAAAAAAAAAAAAAAA==

> <PUBCHEM_IUPAC_OPENEYE_NAME>
dibromopalladium

> <PUBCHEM_IUPAC_CAS_NAME>
dibromopalladium

> <PUBCHEM_IUPAC_NAME_MARKUP>
dibromopalladium

> <PUBCHEM_IUPAC_NAME>
dibromopalladium

> <PUBCHEM_IUPAC_SYSTEMATIC_NAME>
bis(bromanyl)palladium

> <PUBCHEM_IUPAC_TRADITIONAL_NAME>
dibromopalladium

> <PUBCHEM_IUPAC_INCHI>
InChI=1S/2BrH.Pd/h2*1H;/q;;+2/p-2

> <PUBCHEM_IUPAC_INCHIKEY>
INIOZDBICVTGEO-UHFFFAOYSA-L

> <PUBCHEM_EXACT_MASS>
265.73811

> <PUBCHEM_MOLECULAR_FORMULA>
Br2Pd

> <PUBCHEM_MOLECULAR_WEIGHT>
266.23

> <PUBCHEM_SMILES>
Br[Pd]Br

> <PUBCHEM_CONNECTIVITY_SMILES>
Br[Pd]Br

> <PUBCHEM_CACTVS_TPSA>
0

> <PUBCHEM_MONOISOTOPIC_WEIGHT>
263.74016

> <PUBCHEM_TOTAL_CHARGE>
0

> <PUBCHEM_HEAVY_ATOM_COUNT>
3

> <PUBCHEM_ATOM_DEF_STEREO_COUNT>
0

> <PUBCHEM_ATOM_UDEF_STEREO_COUNT>
0

> <PUBCHEM_BOND_DEF_STEREO_COUNT>
0

> <PUBCHEM_BOND_UDEF_STEREO_COUNT>
0

> <PUBCHEM_ISOTOPIC_ATOM_COUNT>
0

> <PUBCHEM_COMPONENT_COUNT>
1

> <PUBCHEM_CACTVS_TAUTO_COUNT>
-1

> <PUBCHEM_COORDINATE_TYPE>
1
5
255

$$$$
