5486778
  -OEChem-08152605562D

 29 26  0     0  0  0  0  0  0999 V2000
    3.7321    0.6900    0.0000 Pd  0  2  0  0  0  0  0  0  0  0  0  0
    3.7321   -0.3100    0.0000 O   0  5  0  0  0  0  0  0  0  0  0  0
    4.5981    1.1900    0.0000 O   0  5  0  0  0  0  0  0  0  0  0  0
    4.5981   -1.8100    0.0000 O   0  0  0  0  0  0  0  0  0  0  0  0
    6.3301    1.1900    0.0000 O   0  0  0  0  0  0  0  0  0  0  0  0
    2.8660   -1.8100    0.0000 C   0  0  0  0  0  0  0  0  0  0  0  0
    5.4641    2.6900    0.0000 C   0  0  0  0  0  0  0  0  0  0  0  0
    2.8660   -0.8100    0.0000 C   0  0  0  0  0  0  0  0  0  0  0  0
    4.5981    2.1900    0.0000 C   0  0  0  0  0  0  0  0  0  0  0  0
    3.7321   -2.3100    0.0000 C   0  0  0  0  0  0  0  0  0  0  0  0
    6.3301    2.1900    0.0000 C   0  0  0  0  0  0  0  0  0  0  0  0
    2.0000   -0.3100    0.0000 C   0  0  0  0  0  0  0  0  0  0  0  0
    3.7321    2.6900    0.0000 C   0  0  0  0  0  0  0  0  0  0  0  0
    3.7321   -3.3100    0.0000 C   0  0  0  0  0  0  0  0  0  0  0  0
    7.1962    2.6900    0.0000 C   0  0  0  0  0  0  0  0  0  0  0  0
    2.3291   -2.1200    0.0000 H   0  0  0  0  0  0  0  0  0  0  0  0
    5.4641    3.3100    0.0000 H   0  0  0  0  0  0  0  0  0  0  0  0
    2.3100    0.2269    0.0000 H   0  0  0  0  0  0  0  0  0  0  0  0
    1.4631   -0.0000    0.0000 H   0  0  0  0  0  0  0  0  0  0  0  0
    1.6900   -0.8469    0.0000 H   0  0  0  0  0  0  0  0  0  0  0  0
    4.0421    3.2269    0.0000 H   0  0  0  0  0  0  0  0  0  0  0  0
    3.1951    3.0000    0.0000 H   0  0  0  0  0  0  0  0  0  0  0  0
    3.4221    2.1531    0.0000 H   0  0  0  0  0  0  0  0  0  0  0  0
    3.1121   -3.3100    0.0000 H   0  0  0  0  0  0  0  0  0  0  0  0
    3.7321   -3.9300    0.0000 H   0  0  0  0  0  0  0  0  0  0  0  0
    4.3521   -3.3100    0.0000 H   0  0  0  0  0  0  0  0  0  0  0  0
    7.5062    2.1531    0.0000 H   0  0  0  0  0  0  0  0  0  0  0  0
    7.7331    3.0000    0.0000 H   0  0  0  0  0  0  0  0  0  0  0  0
    6.8862    3.2269    0.0000 H   0  0  0  0  0  0  0  0  0  0  0  0
  2  8  1  0  0  0  0
  3  9  1  0  0  0  0
  4 10  2  0  0  0  0
  5 11  2  0  0  0  0
  6  8  2  0  0  0  0
  6 10  1  0  0  0  0
  6 16  1  0  0  0  0
  7  9  2  0  0  0  0
  7 11  1  0  0  0  0
  7 17  1  0  0  0  0
  8 12  1  0  0  0  0
  9 13  1  0  0  0  0
 10 14  1  0  0  0  0
 11 15  1  0  0  0  0
 12 18  1  0  0  0  0
 12 19  1  0  0  0  0
 12 20  1  0  0  0  0
 13 21  1  0  0  0  0
 13 22  1  0  0  0  0
 13 23  1  0  0  0  0
 14 24  1  0  0  0  0
 14 25  1  0  0  0  0
 14 26  1  0  0  0  0
 15 27  1  0  0  0  0
 15 28  1  0  0  0  0
 15 29  1  0  0  0  0
M  CHG  3   1   2   2  -1   3  -1
M  END
> <PUBCHEM_COMPOUND_CID>
5486778

> <PUBCHEM_COMPOUND_CANONICALIZED>
1

> <PUBCHEM_CACTVS_COMPLEXITY>
90.4

> <PUBCHEM_CACTVS_HBOND_ACCEPTOR>
4

> <PUBCHEM_CACTVS_HBOND_DONOR>
0

> <PUBCHEM_CACTVS_ROTATABLE_BOND>
2

> <PUBCHEM_CACTVS_SUBSKEYS>
AAADccBwOAAAAAAAAAgAAAAAAAAAAAAAAAAAAAAAAAAAAAAAAAAAGgAAAAAACASAgAACAAAAAACIAKBSAAAAAAAgIAAACAAAAEgAAAAAAQAAAAAAAAAIAQIAAAAAAAAAAAAAAAAAAAAAAAAAAAAAAAAAAA==

> <PUBCHEM_IUPAC_OPENEYE_NAME>
bis((Z)-4-oxopent-2-en-2-olate);palladium(2+)

> <PUBCHEM_IUPAC_CAS_NAME>
bis((Z)-4-oxo-2-penten-2-olate);palladium(2+)

> <PUBCHEM_IUPAC_NAME_MARKUP>
bis((<I>Z</I>)-4-oxopent-2-en-2-olate);palladium(2+)

> <PUBCHEM_IUPAC_NAME>
bis((Z)-4-oxopent-2-en-2-olate);palladium(2+)

> <PUBCHEM_IUPAC_SYSTEMATIC_NAME>
bis((Z)-4-oxidanylidenepent-2-en-2-olate);palladium(2+)

> <PUBCHEM_IUPAC_TRADITIONAL_NAME>
bis((Z)-4-ketopent-2-en-2-olate);palladium(2+)

> <PUBCHEM_IUPAC_INCHI>
InChI=1S/2C5H8O2.Pd/c2*1-4(6)3-5(2)7;/h2*3,6H,1-2H3;/q;;+2/p-2/b2*4-3-;

> <PUBCHEM_IUPAC_INCHIKEY>
JKDRQYIYVJVOPF-FDGPNNRMSA-L

> <PUBCHEM_EXACT_MASS>
303.99269

> <PUBCHEM_MOLECULAR_FORMULA>
C10H14O4Pd

> <PUBCHEM_MOLECULAR_WEIGHT>
304.64

> <PUBCHEM_SMILES>
C/C(=C/C(=O)C)/[O-].C/C(=C/C(=O)C)/[O-].[Pd+2]

> <PUBCHEM_CONNECTIVITY_SMILES>
CC(=CC(=O)C)[O-].CC(=CC(=O)C)[O-].[Pd+2]

> <PUBCHEM_CACTVS_TPSA>
80.3

> <PUBCHEM_MONOISOTOPIC_WEIGHT>
303.99269

> <PUBCHEM_TOTAL_CHARGE>
0

> <PUBCHEM_HEAVY_ATOM_COUNT>
15

> <PUBCHEM_ATOM_DEF_STEREO_COUNT>
0

> <PUBCHEM_ATOM_UDEF_STEREO_COUNT>
0

> <PUBCHEM_BOND_DEF_STEREO_COUNT>
2

> <PUBCHEM_BOND_UDEF_STEREO_COUNT>
0

> <PUBCHEM_ISOTOPIC_ATOM_COUNT>
0

> <PUBCHEM_COMPONENT_COUNT>
3

> <PUBCHEM_CACTVS_TAUTO_COUNT>
-1

> <PUBCHEM_COORDINATE_TYPE>
1
5
255

$$$$
