14620071
  -OEChem-08152606362D

  5  4  0     0  0  0  0  0  0999 V2000
    2.7071    0.0000    0.0000 Pd  0  0  0  0  0  0  0  0  0  0  0  0
    3.4142    0.7071    0.0000 F   0  0  0  0  0  0  0  0  0  0  0  0
    2.0000   -0.7071    0.0000 F   0  0  0  0  0  0  0  0  0  0  0  0
    2.0000    0.7071    0.0000 F   0  0  0  0  0  0  0  0  0  0  0  0
    3.4142   -0.7071    0.0000 F   0  0  0  0  0  0  0  0  0  0  0  0
  1  2  1  0  0  0  0
  1  3  1  0  0  0  0
  1  4  1  0  0  0  0
  1  5  1  0  0  0  0
M  END
> <PUBCHEM_COMPOUND_CID>
14620071

> <PUBCHEM_COMPOUND_CANONICALIZED>
1

> <PUBCHEM_CACTVS_COMPLEXITY>
19.1

> <PUBCHEM_CACTVS_HBOND_ACCEPTOR>
4

> <PUBCHEM_CACTVS_HBOND_DONOR>
0

> <PUBCHEM_CACTVS_ROTATABLE_BOND>
0

> <PUBCHEM_CACTVS_SUBSKEYS>
AAADcQAAAcAAAAAAAAgAAAAAAAAAAAAAAAAAAAAAAAAAAAAAAAAAAAAAAAAAAAAAAAAAAAAAAAAAAAAAAAAAAAAAAAAAAAAAAAAAAAAAAAAAAAAAAAAAAAAAAAAAAAAAAAAAAAAAAAAAAAAAAAAAAAAAAA==

> <PUBCHEM_IUPAC_OPENEYE_NAME>
tetrafluoropalladium

> <PUBCHEM_IUPAC_CAS_NAME>
tetrafluoropalladium

> <PUBCHEM_IUPAC_NAME_MARKUP>
tetrafluoropalladium

> <PUBCHEM_IUPAC_NAME>
tetrafluoropalladium

> <PUBCHEM_IUPAC_SYSTEMATIC_NAME>
tetrakis(fluoranyl)palladium

> <PUBCHEM_IUPAC_TRADITIONAL_NAME>
tetrafluoropalladium

> <PUBCHEM_IUPAC_INCHI>
InChI=1S/4FH.Pd/h4*1H;/q;;;;+4/p-4

> <PUBCHEM_IUPAC_INCHIKEY>
FMHOOXBIBGYFRS-UHFFFAOYSA-J

> <PUBCHEM_EXACT_MASS>
181.89709

> <PUBCHEM_MOLECULAR_FORMULA>
F4Pd

> <PUBCHEM_MOLECULAR_WEIGHT>
182.41

> <PUBCHEM_SMILES>
F[Pd](F)(F)F

> <PUBCHEM_CONNECTIVITY_SMILES>
F[Pd](F)(F)F

> <PUBCHEM_CACTVS_TPSA>
0

> <PUBCHEM_MONOISOTOPIC_WEIGHT>
181.89709

> <PUBCHEM_TOTAL_CHARGE>
0

> <PUBCHEM_HEAVY_ATOM_COUNT>
5

> <PUBCHEM_ATOM_DEF_STEREO_COUNT>
0

> <PUBCHEM_ATOM_UDEF_STEREO_COUNT>
0

> <PUBCHEM_BOND_DEF_STEREO_COUNT>
0

> <PUBCHEM_BOND_UDEF_STEREO_COUNT>
0

> <PUBCHEM_ISOTOPIC_ATOM_COUNT>
0

> <PUBCHEM_COMPONENT_COUNT>
1

> <PUBCHEM_CACTVS_TAUTO_COUNT>
-1

> <PUBCHEM_COORDINATE_TYPE>
1
5
255

$$$$
