86597321
  -OEChem-08152605472D

  3  1  0     0  0  0  0  0  0999 V2000
    0.2500    0.0000    0.0000 Pd  0  0  0  0  0  0  0  0  0  0  0  0
    0.0000    2.5000    0.0000 H   0  0  0  0  0  0  0  0  0  0  0  0
    1.0000    2.5000    0.0000 H   0  0  0  0  0  0  0  0  0  0  0  0
  2  3  1  0  0  0  0
M  END
> <PUBCHEM_COMPOUND_CID>
86597321

> <PUBCHEM_COMPOUND_CANONICALIZED>
1

> <PUBCHEM_CACTVS_COMPLEXITY>
0

> <PUBCHEM_CACTVS_HBOND_ACCEPTOR>
0

> <PUBCHEM_CACTVS_HBOND_DONOR>
0

> <PUBCHEM_CACTVS_ROTATABLE_BOND>
0

> <PUBCHEM_CACTVS_SUBSKEYS>
AAADcQAAAAAAAAAAAAgAAAAAAAAAAAAAAAAAAAAAAAAAAAAAAAAAAAAAAAAAAAAAAAAAAAAAAAAAAAAAAAAAAAAAAAAAAAAAAAAAAAAAAAAAAAAAAAAAAAAAAAAAAAAAAAAAAAAAAAAAAAAAAAAAAAAAAA==

> <PUBCHEM_IUPAC_OPENEYE_NAME>
molecular hydrogen;palladium

> <PUBCHEM_IUPAC_CAS_NAME>
molecular hydrogen;palladium

> <PUBCHEM_IUPAC_NAME_MARKUP>
molecular hydrogen;palladium

> <PUBCHEM_IUPAC_NAME>
molecular hydrogen;palladium

> <PUBCHEM_IUPAC_SYSTEMATIC_NAME>
molecular hydrogen;palladium

> <PUBCHEM_IUPAC_TRADITIONAL_NAME>
molecular hydrogen;palladium

> <PUBCHEM_IUPAC_INCHI>
InChI=1S/Pd.H2/h;1H

> <PUBCHEM_IUPAC_INCHIKEY>
INMKNJLKFSFYSO-UHFFFAOYSA-N

> <PUBCHEM_EXACT_MASS>
107.91913

> <PUBCHEM_MOLECULAR_FORMULA>
H2Pd

> <PUBCHEM_MOLECULAR_WEIGHT>
108.44

> <PUBCHEM_SMILES>
[HH].[Pd]

> <PUBCHEM_CONNECTIVITY_SMILES>
[HH].[Pd]

> <PUBCHEM_CACTVS_TPSA>
0

> <PUBCHEM_MONOISOTOPIC_WEIGHT>
107.91913

> <PUBCHEM_TOTAL_CHARGE>
0

> <PUBCHEM_HEAVY_ATOM_COUNT>
1

> <PUBCHEM_ATOM_DEF_STEREO_COUNT>
0

> <PUBCHEM_ATOM_UDEF_STEREO_COUNT>
0

> <PUBCHEM_BOND_DEF_STEREO_COUNT>
0

> <PUBCHEM_BOND_UDEF_STEREO_COUNT>
0

> <PUBCHEM_ISOTOPIC_ATOM_COUNT>
0

> <PUBCHEM_COMPONENT_COUNT>
2

> <PUBCHEM_CACTVS_TAUTO_COUNT>
-1

> <PUBCHEM_COORDINATE_TYPE>
1
5
255

$$$$
