2733347
  -OEChem-08152604492D

 15 12  0     0  0  0  0  0  0999 V2000
    5.4641    0.1830    0.0000 Pd  0  2  0  0  0  0  0  0  0  0  0  0
    2.0000   -0.8170    0.0000 F   0  0  0  0  0  0  0  0  0  0  0  0
    2.3660    0.5490    0.0000 F   0  0  0  0  0  0  0  0  0  0  0  0
    3.3660   -1.1830    0.0000 F   0  0  0  0  0  0  0  0  0  0  0  0
    8.9282   -0.8170    0.0000 F   0  0  0  0  0  0  0  0  0  0  0  0
    8.5622    0.5490    0.0000 F   0  0  0  0  0  0  0  0  0  0  0  0
    7.5622   -1.1830    0.0000 F   0  0  0  0  0  0  0  0  0  0  0  0
    4.5981   -0.3170    0.0000 O   0  5  0  0  0  0  0  0  0  0  0  0
    6.3301   -0.3170    0.0000 O   0  5  0  0  0  0  0  0  0  0  0  0
    3.7321    1.1830    0.0000 O   0  0  0  0  0  0  0  0  0  0  0  0
    7.1962    1.1830    0.0000 O   0  0  0  0  0  0  0  0  0  0  0  0
    2.8660   -0.3170    0.0000 C   0  0  0  0  0  0  0  0  0  0  0  0
    8.0622   -0.3170    0.0000 C   0  0  0  0  0  0  0  0  0  0  0  0
    3.7321    0.1830    0.0000 C   0  0  0  0  0  0  0  0  0  0  0  0
    7.1962    0.1830    0.0000 C   0  0  0  0  0  0  0  0  0  0  0  0
  2 12  1  0  0  0  0
  3 12  1  0  0  0  0
  4 12  1  0  0  0  0
  5 13  1  0  0  0  0
  6 13  1  0  0  0  0
  7 13  1  0  0  0  0
  8 14  1  0  0  0  0
  9 15  1  0  0  0  0
 10 14  2  0  0  0  0
 11 15  2  0  0  0  0
 12 14  1  0  0  0  0
 13 15  1  0  0  0  0
M  CHG  3   1   2   8  -1   9  -1
M  END
> <PUBCHEM_COMPOUND_CID>
2733347

> <PUBCHEM_COMPOUND_CANONICALIZED>
1

> <PUBCHEM_CACTVS_COMPLEXITY>
77.9

> <PUBCHEM_CACTVS_HBOND_ACCEPTOR>
10

> <PUBCHEM_CACTVS_HBOND_DONOR>
0

> <PUBCHEM_CACTVS_ROTATABLE_BOND>
0

> <PUBCHEM_CACTVS_SUBSKEYS>
AAADcQBgOcAAAAAAAAgAAAAAAAAAAAAAAAAAAAAAAAAAAAAAAAAACwAAAAAAAAAAgBAACAAAAAAIAACQCAAAAAAAAAAAAAAAAAAAAAAAAAAAAAAAAAAAAAAAAAAAAAAAAAAAAAAAAAAAAAAAAAAAAAAAAA==

> <PUBCHEM_IUPAC_OPENEYE_NAME>
palladium(2+);bis(2,2,2-trifluoroacetate)

> <PUBCHEM_IUPAC_CAS_NAME>
palladium(2+);bis(2,2,2-trifluoroacetate)

> <PUBCHEM_IUPAC_NAME_MARKUP>
palladium(2+);bis(2,2,2-trifluoroacetate)

> <PUBCHEM_IUPAC_NAME>
palladium(2+);bis(2,2,2-trifluoroacetate)

> <PUBCHEM_IUPAC_SYSTEMATIC_NAME>
palladium(2+);bis(2,2,2-tris(fluoranyl)ethanoate)

> <PUBCHEM_IUPAC_TRADITIONAL_NAME>
palladium(2+);bis(2,2,2-trifluoroacetate)

> <PUBCHEM_IUPAC_INCHI>
InChI=1S/2C2HF3O2.Pd/c2*3-2(4,5)1(6)7;/h2*(H,6,7);/q;;+2/p-2

> <PUBCHEM_IUPAC_INCHIKEY>
PBDBXAQKXCXZCJ-UHFFFAOYSA-L

> <PUBCHEM_EXACT_MASS>
331.87356

> <PUBCHEM_MOLECULAR_FORMULA>
C4F6O4Pd

> <PUBCHEM_MOLECULAR_WEIGHT>
332.45

> <PUBCHEM_SMILES>
C(=O)(C(F)(F)F)[O-].C(=O)(C(F)(F)F)[O-].[Pd+2]

> <PUBCHEM_CONNECTIVITY_SMILES>
C(=O)(C(F)(F)F)[O-].C(=O)(C(F)(F)F)[O-].[Pd+2]

> <PUBCHEM_CACTVS_TPSA>
80.3

> <PUBCHEM_MONOISOTOPIC_WEIGHT>
331.87356

> <PUBCHEM_TOTAL_CHARGE>
0

> <PUBCHEM_HEAVY_ATOM_COUNT>
15

> <PUBCHEM_ATOM_DEF_STEREO_COUNT>
0

> <PUBCHEM_ATOM_UDEF_STEREO_COUNT>
0

> <PUBCHEM_BOND_DEF_STEREO_COUNT>
0

> <PUBCHEM_BOND_UDEF_STEREO_COUNT>
0

> <PUBCHEM_ISOTOPIC_ATOM_COUNT>
0

> <PUBCHEM_COMPONENT_COUNT>
3

> <PUBCHEM_CACTVS_TAUTO_COUNT>
-1

> <PUBCHEM_COORDINATE_TYPE>
1
5
255

$$$$
