61538
  -OEChem-08152606102D

 20 16  0     0  0  0  0  0  0999 V2000
    0.8660    0.1200    0.0000 Pd  0  3  0  0  0  0  0  0  0  0  0  0
    0.8660    3.8600    0.0000 Pd  0  3  0  0  0  0  0  0  0  0  0  0
    0.0000    0.6200    0.0000 Cl  0  0  0  0  0  0  0  0  0  0  0  0
    0.0000    4.3600    0.0000 Cl  0  0  0  0  0  0  0  0  0  0  0  0
    1.7321    0.6200    0.0000 C   0  5  0  0  0  0  0  0  0  0  0  0
    1.7321    4.3600    0.0000 C   0  5  0  0  0  0  0  0  0  0  0  0
    2.5981    1.1200    0.0000 C   0  0  0  0  0  0  0  0  0  0  0  0
    2.5981    4.8600    0.0000 C   0  0  0  0  0  0  0  0  0  0  0  0
    3.4641    0.6200    0.0000 C   0  0  0  0  0  0  0  0  0  0  0  0
    3.4641    4.3600    0.0000 C   0  0  0  0  0  0  0  0  0  0  0  0
    1.4221    1.1569    0.0000 H   0  0  0  0  0  0  0  0  0  0  0  0
    2.0421    0.0831    0.0000 H   0  0  0  0  0  0  0  0  0  0  0  0
    1.4221    4.8969    0.0000 H   0  0  0  0  0  0  0  0  0  0  0  0
    2.0421    3.8231    0.0000 H   0  0  0  0  0  0  0  0  0  0  0  0
    2.5981    1.7400    0.0000 H   0  0  0  0  0  0  0  0  0  0  0  0
    2.5981    5.4800    0.0000 H   0  0  0  0  0  0  0  0  0  0  0  0
    3.4641    0.0000    0.0000 H   0  0  0  0  0  0  0  0  0  0  0  0
    4.0010    0.9300    0.0000 H   0  0  0  0  0  0  0  0  0  0  0  0
    3.4641    3.7400    0.0000 H   0  0  0  0  0  0  0  0  0  0  0  0
    4.0010    4.6700    0.0000 H   0  0  0  0  0  0  0  0  0  0  0  0
  1  3  1  0  0  0  0
  2  4  1  0  0  0  0
  5  7  1  0  0  0  0
  5 11  1  0  0  0  0
  5 12  1  0  0  0  0
  6  8  1  0  0  0  0
  6 13  1  0  0  0  0
  6 14  1  0  0  0  0
  7  9  2  0  0  0  0
  7 15  1  0  0  0  0
  8 10  2  0  0  0  0
  8 16  1  0  0  0  0
  9 17  1  0  0  0  0
  9 18  1  0  0  0  0
 10 19  1  0  0  0  0
 10 20  1  0  0  0  0
M  CHG  4   1   1   2   1   5  -1   6  -1
M  END
> <PUBCHEM_COMPOUND_CID>
61538

> <PUBCHEM_COMPOUND_CANONICALIZED>
1

> <PUBCHEM_CACTVS_COMPLEXITY>
14.4

> <PUBCHEM_CACTVS_HBOND_ACCEPTOR>
2

> <PUBCHEM_CACTVS_HBOND_DONOR>
0

> <PUBCHEM_CACTVS_ROTATABLE_BOND>
0

> <PUBCHEM_CACTVS_SUBSKEYS>
AAADccBgAAAGAAAAAAgAAAAAAAAAAAAAAAAAAAAAAAAAAAAAAAAAGAAAAAAACACAAAAAAAAAAACAACBCAAAAAAAAAAAIAAAAAAAAAAAAAQAAAAAAAAAAAAAAAAAAAAAAAAAAAAAAAAAAAAAAAAAAAAAAAA==

> <PUBCHEM_IUPAC_OPENEYE_NAME>
bis(chloropalladium(1+));bis(prop-1-ene)

> <PUBCHEM_IUPAC_CAS_NAME>
bis(chloropalladium(1+));bis(1-propene)

> <PUBCHEM_IUPAC_NAME_MARKUP>
bis(chloropalladium(1+));bis(prop-1-ene)

> <PUBCHEM_IUPAC_NAME>
bis(chloropalladium(1+));bis(prop-1-ene)

> <PUBCHEM_IUPAC_SYSTEMATIC_NAME>
bis(chloranylpalladium(1+));bis(prop-1-ene)

> <PUBCHEM_IUPAC_TRADITIONAL_NAME>
bis(chloropalladium(1+));bis(prop-1-ene)

> <PUBCHEM_IUPAC_INCHI>
InChI=1S/2C3H5.2ClH.2Pd/c2*1-3-2;;;;/h2*3H,1-2H2;2*1H;;/q2*-1;;;2*+2/p-2

> <PUBCHEM_IUPAC_INCHIKEY>
PENAXHPKEVTBLF-UHFFFAOYSA-L

> <PUBCHEM_EXACT_MASS>
365.82333

> <PUBCHEM_MOLECULAR_FORMULA>
C6H10Cl2Pd2

> <PUBCHEM_MOLECULAR_WEIGHT>
365.9

> <PUBCHEM_SMILES>
[CH2-]C=C.[CH2-]C=C.Cl[Pd+].Cl[Pd+]

> <PUBCHEM_CONNECTIVITY_SMILES>
[CH2-]C=C.[CH2-]C=C.Cl[Pd+].Cl[Pd+]

> <PUBCHEM_CACTVS_TPSA>
0

> <PUBCHEM_MONOISOTOPIC_WEIGHT>
363.82292

> <PUBCHEM_TOTAL_CHARGE>
0

> <PUBCHEM_HEAVY_ATOM_COUNT>
10

> <PUBCHEM_ATOM_DEF_STEREO_COUNT>
0

> <PUBCHEM_ATOM_UDEF_STEREO_COUNT>
0

> <PUBCHEM_BOND_DEF_STEREO_COUNT>
0

> <PUBCHEM_BOND_UDEF_STEREO_COUNT>
0

> <PUBCHEM_ISOTOPIC_ATOM_COUNT>
0

> <PUBCHEM_COMPONENT_COUNT>
4

> <PUBCHEM_CACTVS_TAUTO_COUNT>
-1

> <PUBCHEM_NONSTANDARDBOND>
1  5  6
2  6  6

> <PUBCHEM_COORDINATE_TYPE>
1
5
255

$$$$
