73974
  -OEChem-08152604332D

  2  0  0     0  0  0  0  0  0999 V2000
    2.0000    0.0000    0.0000 Pd  0  2  0  0  0  0  0  0  0  0  0  0
    3.0000    0.0000    0.0000 O   0  6  0  0  0  0  0  0  0  0  0  0
M  CHG  2   1   2   2  -2
M  END
> <PUBCHEM_COMPOUND_CID>
73974

> <PUBCHEM_COMPOUND_CANONICALIZED>
1

> <PUBCHEM_CACTVS_COMPLEXITY>
0

> <PUBCHEM_CACTVS_HBOND_ACCEPTOR>
1

> <PUBCHEM_CACTVS_HBOND_DONOR>
0

> <PUBCHEM_CACTVS_ROTATABLE_BOND>
0

> <PUBCHEM_CACTVS_SUBSKEYS>
AAADcQAAIAAAAAAAAAgAAAAAAAAAAAAAAAAAAAAAAAAAAAAAAAAAAAAAAAAAAAAAAAAAAAAAAAAAAAAAAAAAAAAAAAAAAAAAAAAAAAAAAAAAAAAAAAAAAAAAAAAAAAAAAAAAAAAAAAAAAAAAAAAAAAAAAA==

> <PUBCHEM_IUPAC_OPENEYE_NAME>
oxygen(2-);palladium(2+)

> <PUBCHEM_IUPAC_CAS_NAME>
oxygen(2-);palladium(2+)

> <PUBCHEM_IUPAC_NAME_MARKUP>
oxygen(2-);palladium(2+)

> <PUBCHEM_IUPAC_NAME>
oxygen(2-);palladium(2+)

> <PUBCHEM_IUPAC_SYSTEMATIC_NAME>
oxygen(2-);palladium(2+)

> <PUBCHEM_IUPAC_TRADITIONAL_NAME>
oxygen(2-);palladium(2+)

> <PUBCHEM_IUPAC_INCHI>
InChI=1S/O.Pd/q-2;+2

> <PUBCHEM_IUPAC_INCHIKEY>
JQPTYAILLJKUCY-UHFFFAOYSA-N

> <PUBCHEM_EXACT_MASS>
121.89839

> <PUBCHEM_MOLECULAR_FORMULA>
OPd

> <PUBCHEM_MOLECULAR_WEIGHT>
122.42

> <PUBCHEM_SMILES>
[O-2].[Pd+2]

> <PUBCHEM_CONNECTIVITY_SMILES>
[O-2].[Pd+2]

> <PUBCHEM_CACTVS_TPSA>
1

> <PUBCHEM_MONOISOTOPIC_WEIGHT>
121.89839

> <PUBCHEM_TOTAL_CHARGE>
0

> <PUBCHEM_HEAVY_ATOM_COUNT>
2

> <PUBCHEM_ATOM_DEF_STEREO_COUNT>
0

> <PUBCHEM_ATOM_UDEF_STEREO_COUNT>
0

> <PUBCHEM_BOND_DEF_STEREO_COUNT>
0

> <PUBCHEM_BOND_UDEF_STEREO_COUNT>
0

> <PUBCHEM_ISOTOPIC_ATOM_COUNT>
0

> <PUBCHEM_COMPONENT_COUNT>
2

> <PUBCHEM_CACTVS_TAUTO_COUNT>
-1

> <PUBCHEM_COORDINATE_TYPE>
1
5
255

$$$$
