479
  -OEChem-08152602493D

 40 39  0     1  0  0  0  0  0999 V2000
   -3.5675    2.6476   -1.1558 S   0  0  0  0  0  0  0  0  0  0  0  0
    3.8932   -0.7930    0.0639 O   0  0  0  0  0  0  0  0  0  0  0  0
    2.0804    2.9149   -1.0398 O   0  0  0  0  0  0  0  0  0  0  0  0
    1.8600   -1.6097   -1.5196 O   0  0  0  0  0  0  0  0  0  0  0  0
   -2.0552   -1.0830    1.4231 O   0  0  0  0  0  0  0  0  0  0  0  0
    0.5581   -1.8849    0.3811 N   0  0  0  0  0  0  0  0  0  0  0  0
   -3.3944   -0.3993   -0.3469 N   0  0  0  0  0  0  0  0  0  0  0  0
    2.2773    0.9921    0.4681 C   0  0  0  0  0  0  0  0  0  0  0  0
    2.5705   -0.5365    0.5284 C   0  0  1  0  0  0  0  0  0  0  0  0
    2.3485    1.5178   -0.9867 C   0  0  0  0  0  0  0  0  0  0  0  0
    0.8957    1.3144    1.0713 C   0  0  0  0  0  0  0  0  0  0  0  0
    3.3389    1.7311    1.3176 C   0  0  0  0  0  0  0  0  0  0  0  0
    1.6379   -1.3876   -0.3307 C   0  0  0  0  0  0  0  0  0  0  0  0
   -0.4478   -2.7379   -0.2088 C   0  0  0  0  0  0  0  0  0  0  0  0
   -1.6049   -1.9424   -0.7975 C   0  0  0  0  0  0  0  0  0  0  0  0
   -2.3500   -1.1066    0.2313 C   0  0  0  0  0  0  0  0  0  0  0  0
   -4.2704    0.4634    0.4113 C   0  0  0  0  0  0  0  0  0  0  0  0
   -3.7701    1.8995    0.4895 C   0  0  0  0  0  0  0  0  0  0  0  0
    2.5294   -0.8877    1.5663 H   0  0  0  0  0  0  0  0  0  0  0  0
    3.3393    1.3598   -1.4235 H   0  0  0  0  0  0  0  0  0  0  0  0
    1.6069    1.0231   -1.6215 H   0  0  0  0  0  0  0  0  0  0  0  0
    0.7926    0.8818    2.0728 H   0  0  0  0  0  0  0  0  0  0  0  0
    0.7360    2.3946    1.1635 H   0  0  0  0  0  0  0  0  0  0  0  0
    0.0864    0.9200    0.4482 H   0  0  0  0  0  0  0  0  0  0  0  0
    3.1331    2.8060    1.3741 H   0  0  0  0  0  0  0  0  0  0  0  0
    3.3560    1.3469    2.3439 H   0  0  0  0  0  0  0  0  0  0  0  0
    4.3443    1.6130    0.8987 H   0  0  0  0  0  0  0  0  0  0  0  0
    0.4519   -1.6402    1.3611 H   0  0  0  0  0  0  0  0  0  0  0  0
   -0.8034   -3.4066    0.5824 H   0  0  0  0  0  0  0  0  0  0  0  0
    0.0156   -3.3509   -0.9892 H   0  0  0  0  0  0  0  0  0  0  0  0
    3.9366   -0.5843   -0.8839 H   0  0  0  0  0  0  0  0  0  0  0  0
   -2.3207   -2.6324   -1.2593 H   0  0  0  0  0  0  0  0  0  0  0  0
   -1.2360   -1.2666   -1.5788 H   0  0  0  0  0  0  0  0  0  0  0  0
    2.1362    3.1812   -1.9733 H   0  0  0  0  0  0  0  0  0  0  0  0
   -3.5549   -0.4773   -1.3470 H   0  0  0  0  0  0  0  0  0  0  0  0
   -5.2574    0.4217   -0.0629 H   0  0  0  0  0  0  0  0  0  0  0  0
   -4.3752    0.0595    1.4245 H   0  0  0  0  0  0  0  0  0  0  0  0
   -2.8000    1.9382    0.9961 H   0  0  0  0  0  0  0  0  0  0  0  0
   -4.4736    2.5101    1.0639 H   0  0  0  0  0  0  0  0  0  0  0  0
   -3.1331    3.8417   -0.7268 H   0  0  0  0  0  0  0  0  0  0  0  0
  1 18  1  0  0  0  0
  1 40  1  0  0  0  0
  2  9  1  0  0  0  0
  2 31  1  0  0  0  0
  3 10  1  0  0  0  0
  3 34  1  0  0  0  0
  4 13  2  0  0  0  0
  5 16  2  0  0  0  0
  6 13  1  0  0  0  0
  6 14  1  0  0  0  0
  6 28  1  0  0  0  0
  7 16  1  0  0  0  0
  7 17  1  0  0  0  0
  7 35  1  0  0  0  0
  8  9  1  0  0  0  0
  8 10  1  0  0  0  0
  8 11  1  0  0  0  0
  8 12  1  0  0  0  0
  9 13  1  0  0  0  0
  9 19  1  0  0  0  0
 10 20  1  0  0  0  0
 10 21  1  0  0  0  0
 11 22  1  0  0  0  0
 11 23  1  0  0  0  0
 11 24  1  0  0  0  0
 12 25  1  0  0  0  0
 12 26  1  0  0  0  0
 12 27  1  0  0  0  0
 14 15  1  0  0  0  0
 14 29  1  0  0  0  0
 14 30  1  0  0  0  0
 15 16  1  0  0  0  0
 15 32  1  0  0  0  0
 15 33  1  0  0  0  0
 17 18  1  0  0  0  0
 17 36  1  0  0  0  0
 17 37  1  0  0  0  0
 18 38  1  0  0  0  0
 18 39  1  0  0  0  0
M  END
> <PUBCHEM_COMPOUND_CID>
479

> <PUBCHEM_CONFORMER_RMSD>
1

> <PUBCHEM_CONFORMER_DIVERSEORDER>
1
307
226
161
19
181
231
39
26
343
342
168
286
4
253
100
114
20
156
241
370
321
201
339
194
277
45
219
227
311
281
47
215
229
260
24
239
72
115
34
49
48
213
189
40
92
191
274
234
337
317
284
62
320
297
369
7
323
35
218
42
130
232
364
163
206
197
340
279
124
363
123
41
107
169
105
316
122
179
8
362
198
306
32
109
288
91
228
248
137
264
263
117
207
76
193
303
159
140
258
120
190
310
53
86
287
344
291
348
185
87
103
143
367
257
29
240
212
347
374
276
166
148
13
290
326
96
133
187
66
134
112
216
110
192
165
65
204
302
251
119
315
139
10
164
332
85
271
322
301
176
225
356
173
266
14
81
220
160
144
158
38
54
236
102
295
64
330
377
358
184
324
89
90
77
3
314
16
46
80
69
214
121
200
359
268
246
171
61
335
22
349
126
131
233
292
155
104
346
230
338
252
149
275
9
300
147
18
27
167
209
82
141
196
44
116
145
37
56
244
328
152
293
199
59
15
313
278
188
75
6
371
272
285
68
357
238
2
208
58
30
182
222
355
153
282
261
129
354
127
63
111
12
289
52
327
78
132
60
243
25
325
333
341
265
73
138
269
205
142
254
375
135
94
259
353
298
294
262
280
372
71
360
312
224
57
352
368
151
21
98
170
221
99
318
329
146
186
203
5
128
177
23
43
51
125
108
88
97
195
365
245
319
249
273
50
11
154
210
309
172
162
74
299
283
150
270
376
174
178
331
70
373
33
345
101
95
237
305
242
113
235
304
202
183
118
55
28
361
93
83
106
211
157
308
256
336
31
351
217
247
17
67
223
36
296
180
366
334
84
250
255
267
175
350
136
79

> <PUBCHEM_MMFF94_PARTIAL_CHARGES>
20
1 -0.41
10 0.28
13 0.57
14 0.3
15 0.06
16 0.57
17 0.3
18 0.23
2 -0.68
28 0.37
3 -0.68
31 0.4
34 0.4
35 0.37
4 -0.57
40 0.18
5 -0.57
6 -0.73
7 -0.73
9 0.34

> <PUBCHEM_EFFECTIVE_ROTOR_COUNT>
10

> <PUBCHEM_PHARMACOPHORE_FEATURES>
9
1 2 acceptor
1 2 donor
1 3 acceptor
1 3 donor
1 4 acceptor
1 5 acceptor
1 6 donor
1 7 donor
3 8 11 12 hydrophobe

> <PUBCHEM_HEAVY_ATOM_COUNT>
18

> <PUBCHEM_ATOM_DEF_STEREO_COUNT>
0

> <PUBCHEM_ATOM_UDEF_STEREO_COUNT>
1

> <PUBCHEM_BOND_DEF_STEREO_COUNT>
0

> <PUBCHEM_BOND_UDEF_STEREO_COUNT>
0

> <PUBCHEM_ISOTOPIC_ATOM_COUNT>
0

> <PUBCHEM_COMPONENT_COUNT>
1

> <PUBCHEM_CACTVS_TAUTO_COUNT>
4

> <PUBCHEM_CONFORMER_ID>
000001DF00000001

> <PUBCHEM_MMFF94_ENERGY>
26.559

> <PUBCHEM_FEATURE_SELFOVERLAP>
45.68

> <PUBCHEM_SHAPE_FINGERPRINT>
10498660 4 17834112326842063093
11221954 11 18334864943400209697
11615756 256 18409455799422824413
13618510 140 18337956804414997789
14026960 21 18336275604303068195
14251764 38 18262230024607580245
14957384 54 17749936783463916005
17093844 170 17758666759311598652
18186145 218 18270403759466493295
18219364 16 18340216180856909691
20621476 13 17901938652529424941
21475661 188 17969779671235829565
21524375 3 18413670218981718263
22749437 52 18412256229769193489
23419403 2 16689586280629250778
238 59 17687145761871877029
3524813 1 18338513041456043133
54672768 99 18191022305280513141

> <PUBCHEM_SHAPE_MULTIPOLES>
340.84
7.61
3.41
1.27
4.55
0.43
0.07
4.23
-0.42
0.46
0.88
-0.19
0.39
0.74

> <PUBCHEM_SHAPE_SELFOVERLAP>
643.094

> <PUBCHEM_SHAPE_VOLUME>
213.7

> <PUBCHEM_COORDINATE_TYPE>
2
5
10

$$$$
