83718
  -OEChem-08152604592D

  6  5  0     0  0  0  0  0  0999 V2000
    2.7071    0.0000    0.0000 Re  0  0  0  0  0  0  0  0  0  0  0  0
    3.4142    0.7071    0.0000 O   0  0  0  0  0  0  0  0  0  0  0  0
    3.4142   -0.7071    0.0000 O   0  0  0  0  0  0  0  0  0  0  0  0
    2.0000   -0.7071    0.0000 O   0  0  0  0  0  0  0  0  0  0  0  0
    2.0000    0.7071    0.0000 O   0  0  0  0  0  0  0  0  0  0  0  0
    4.0131    0.5466    0.0000 H   0  0  0  0  0  0  0  0  0  0  0  0
  1  2  1  6  0  0  0
  1  3  2  1  0  0  0
  1  4  2  1  0  0  0
  1  5  2  6  0  0  0
  2  6  1  0  0  0  0
M  END
> <PUBCHEM_COMPOUND_CID>
83718

> <PUBCHEM_COMPOUND_CANONICALIZED>
1

> <PUBCHEM_CACTVS_COMPLEXITY>
114

> <PUBCHEM_CACTVS_HBOND_ACCEPTOR>
4

> <PUBCHEM_CACTVS_HBOND_DONOR>
1

> <PUBCHEM_CACTVS_ROTATABLE_BOND>
0

> <PUBCHEM_CACTVS_SUBSKEYS>
AAADcQAAOAAAAAAAAAAAIAAAAAAAAAAAAAAAAAAAAAAAAAAAAAAAAAAACAAAAAAAAAAAAAAAAAAAAAAAAAAAAAAAAAAAAAAAAAAAAAAAAAAAAAAAAAAAAAAAAAAAAAAAAAAAAAAAAAAAAAAAAAAAAAAAAA==

> <PUBCHEM_IUPAC_OPENEYE_NAME>
hydroxy(trioxo)rhenium

> <PUBCHEM_IUPAC_CAS_NAME>
hydroxy(trioxo)rhenium

> <PUBCHEM_IUPAC_NAME_MARKUP>
hydroxy(trioxo)rhenium

> <PUBCHEM_IUPAC_NAME>
hydroxy(trioxo)rhenium

> <PUBCHEM_IUPAC_SYSTEMATIC_NAME>
oxidanyl-tris(oxidanylidene)rhenium

> <PUBCHEM_IUPAC_TRADITIONAL_NAME>
hydroxy(triketo)rhenium

> <PUBCHEM_IUPAC_INCHI>
InChI=1S/H2O.3O.Re/h1H2;;;;/q;;;;+1/p-1

> <PUBCHEM_IUPAC_INCHIKEY>
UGSFIVDHFJJCBJ-UHFFFAOYSA-M

> <PUBCHEM_EXACT_MASS>
251.943236

> <PUBCHEM_MOLECULAR_FORMULA>
HO4Re

> <PUBCHEM_MOLECULAR_WEIGHT>
251.21

> <PUBCHEM_SMILES>
O[Re](=O)(=O)=O

> <PUBCHEM_CONNECTIVITY_SMILES>
O[Re](=O)(=O)=O

> <PUBCHEM_CACTVS_TPSA>
71.4

> <PUBCHEM_MONOISOTOPIC_WEIGHT>
251.943236

> <PUBCHEM_TOTAL_CHARGE>
0

> <PUBCHEM_HEAVY_ATOM_COUNT>
5

> <PUBCHEM_ATOM_DEF_STEREO_COUNT>
0

> <PUBCHEM_ATOM_UDEF_STEREO_COUNT>
0

> <PUBCHEM_BOND_DEF_STEREO_COUNT>
0

> <PUBCHEM_BOND_UDEF_STEREO_COUNT>
0

> <PUBCHEM_ISOTOPIC_ATOM_COUNT>
0

> <PUBCHEM_COMPONENT_COUNT>
1

> <PUBCHEM_CACTVS_TAUTO_COUNT>
-1

> <PUBCHEM_COORDINATE_TYPE>
1
5
255

> <PUBCHEM_BONDANNOTATIONS>
1  2  6
1  3  5
1  4  5
1  5  6

$$$$
