6326975
  -OEChem-08152604343D

  7  6  0     0  0  0  0  0  0999 V2000
   -1.4139    0.4000    0.4145 P   0  3  0  0  0  0  0  0  0  0  0  0
    1.4139   -0.3996    0.4145 P   0  3  0  0  0  0  0  0  0  0  0  0
    0.0000    0.0000   -0.2672 O   0  0  0  0  0  0  0  0  0  0  0  0
   -2.0694   -1.1231    0.5152 O   0  5  0  0  0  0  0  0  0  0  0  0
    2.0697    1.1233    0.5147 O   0  5  0  0  0  0  0  0  0  0  0  0
   -2.1057    0.8352   -0.7960 O   0  0  0  0  0  0  0  0  0  0  0  0
    2.1053   -0.8359   -0.7957 O   0  0  0  0  0  0  0  0  0  0  0  0
  1  3  1  0  0  0  0
  1  4  1  0  0  0  0
  1  6  2  0  0  0  0
  2  3  1  0  0  0  0
  2  5  1  0  0  0  0
  2  7  2  0  0  0  0
M  CHG  4   1   1   2   1   4  -1   5  -1
M  END
> <PUBCHEM_COMPOUND_CID>
6326975

> <PUBCHEM_CONFORMER_RMSD>
0.4

> <PUBCHEM_CONFORMER_DIVERSEORDER>
1
17
3
16
8
19
5
15
12
18
4
9
14
13
2
11
10
7
6

> <PUBCHEM_EFFECTIVE_ROTOR_COUNT>
2

> <PUBCHEM_PHARMACOPHORE_FEATURES>
4
1 4 acceptor
1 5 acceptor
1 6 acceptor
1 7 acceptor

> <PUBCHEM_HEAVY_ATOM_COUNT>
7

> <PUBCHEM_ATOM_DEF_STEREO_COUNT>
0

> <PUBCHEM_ATOM_UDEF_STEREO_COUNT>
0

> <PUBCHEM_BOND_DEF_STEREO_COUNT>
0

> <PUBCHEM_BOND_UDEF_STEREO_COUNT>
0

> <PUBCHEM_ISOTOPIC_ATOM_COUNT>
0

> <PUBCHEM_COMPONENT_COUNT>
1

> <PUBCHEM_CACTVS_TAUTO_COUNT>
1

> <PUBCHEM_CONFORMER_ID>
00608ABF00000001

> <PUBCHEM_MMFF94_ENERGY>
0.5507

> <PUBCHEM_FEATURE_SELFOVERLAP>
20.377

> <PUBCHEM_SHAPE_FINGERPRINT>
12932741 1 18410856546754887796
14390081 3 18334006177321250741
16714656 1 17749960951117913085
20096714 4 18130783486340999424
21040471 1 17677606458749152853
24536 1 18131066004678141592
29004967 10 17988366975063373714
5460574 1 9295283945602023449

> <PUBCHEM_SHAPE_MULTIPOLES>
122.41
3.47
1.1
0.86
0
0
0.04
0
0.19
0
-0.08
0
0
0.53

> <PUBCHEM_SHAPE_SELFOVERLAP>
203.036

> <PUBCHEM_SHAPE_VOLUME>
84.9

> <PUBCHEM_COORDINATE_TYPE>
2
5
10

$$$$
