1009
  -OEChem-08152603352D

 70 73  0     1  0  0  0  0  0999 V2000
   14.5663   -2.7520    0.0000 P   0  0  3  0  0  0  0  0  0  0  0  0
    3.2467    1.2888    0.0000 P   0  0  0  0  0  0  0  0  0  0  0  0
   16.2892   -2.9301    0.0000 P   0  0  3  0  0  0  0  0  0  0  0  0
   18.0121   -3.1082    0.0000 P   0  0  0  0  0  0  0  0  0  0  0  0
   12.0317   -0.9876    0.0000 O   0  0  0  0  0  0  0  0  0  0  0  0
    6.3116    1.6683    0.0000 O   0  0  0  0  0  0  0  0  0  0  0  0
    9.4937   -1.4920    0.0000 O   0  0  0  0  0  0  0  0  0  0  0  0
   10.7755   -3.2498    0.0000 O   0  0  0  0  0  0  0  0  0  0  0  0
    7.8638    3.7387    0.0000 O   0  0  0  0  0  0  0  0  0  0  0  0
    5.7357    4.1910    0.0000 O   0  0  0  0  0  0  0  0  0  0  0  0
   13.7563   -2.1656    0.0000 O   0  0  0  0  0  0  0  0  0  0  0  0
    4.2412    1.3934    0.0000 O   0  0  0  0  0  0  0  0  0  0  0  0
   15.3764   -3.3384    0.0000 O   0  0  0  0  0  0  0  0  0  0  0  0
   15.1527   -1.9420    0.0000 O   0  0  0  0  0  0  0  0  0  0  0  0
    2.2522    1.1843    0.0000 O   0  0  0  0  0  0  0  0  0  0  0  0
    3.3512    0.2943    0.0000 O   0  0  0  0  0  0  0  0  0  0  0  0
   13.9800   -3.5621    0.0000 O   0  0  0  0  0  0  0  0  0  0  0  0
    3.1422    2.2834    0.0000 O   0  0  0  0  0  0  0  0  0  0  0  0
   17.2021   -2.5218    0.0000 O   0  0  0  0  0  0  0  0  0  0  0  0
   16.6975   -3.8429    0.0000 O   0  0  0  0  0  0  0  0  0  0  0  0
   15.8809   -2.0173    0.0000 O   0  0  0  0  0  0  0  0  0  0  0  0
   18.8221   -3.6945    0.0000 O   0  0  0  0  0  0  0  0  0  0  0  0
   18.5985   -2.2981    0.0000 O   0  0  0  0  0  0  0  0  0  0  0  0
   17.4257   -3.9182    0.0000 O   0  0  0  0  0  0  0  0  0  0  0  0
   10.7695    0.2703    0.0000 N   0  0  0  0  0  0  0  0  0  0  0  0
    8.0912    1.5750    0.0000 N   0  3  0  0  0  0  0  0  0  0  0  0
    8.9572    0.0750    0.0000 N   0  0  0  0  0  0  0  0  0  0  0  0
   10.7695    1.8798    0.0000 N   0  0  0  0  0  0  0  0  0  0  0  0
    8.9572    3.0750    0.0000 N   0  0  0  0  0  0  0  0  0  0  0  0
   11.0801   -0.6802    0.0000 C   0  0  3  0  0  0  0  0  0  0  0  0
   10.4937   -1.4902    0.0000 C   0  0  3  0  0  0  0  0  0  0  0  0
   11.0829   -2.2982    0.0000 C   0  0  3  0  0  0  0  0  0  0  0  0
    7.2252    2.0750    0.0000 C   0  0  3  0  0  0  0  0  0  0  0  0
    7.1206    3.0696    0.0000 C   0  0  3  0  0  0  0  0  0  0  0  0
   12.0334   -1.9876    0.0000 C   0  0  3  0  0  0  0  0  0  0  0  0
    6.1425    3.2775    0.0000 C   0  0  3  0  0  0  0  0  0  0  0  0
    5.6425    2.4115    0.0000 C   0  0  3  0  0  0  0  0  0  0  0  0
    9.8232    0.5750    0.0000 C   0  0  0  0  0  0  0  0  0  0  0  0
   12.8435   -2.5740    0.0000 C   0  0  0  0  0  0  0  0  0  0  0  0
    4.6480    2.3069    0.0000 C   0  0  0  0  0  0  0  0  0  0  0  0
    8.9572    2.0750    0.0000 C   0  0  0  0  0  0  0  0  0  0  0  0
    9.8232    1.5750    0.0000 C   0  0  0  0  0  0  0  0  0  0  0  0
   11.3531    1.0750    0.0000 C   0  0  0  0  0  0  0  0  0  0  0  0
    8.0912    0.5750    0.0000 C   0  0  0  0  0  0  0  0  0  0  0  0
   11.5178   -0.2410    0.0000 H   0  0  0  0  0  0  0  0  0  0  0  0
   10.2132   -2.0431    0.0000 H   0  0  0  0  0  0  0  0  0  0  0  0
   11.5221   -2.7359    0.0000 H   0  0  0  0  0  0  0  0  0  0  0  0
    7.1927    1.4559    0.0000 H   0  0  0  0  0  0  0  0  0  0  0  0
    6.9602    3.6684    0.0000 H   0  0  0  0  0  0  0  0  0  0  0  0
   12.5854   -1.7051    0.0000 H   0  0  0  0  0  0  0  0  0  0  0  0
    5.5233    3.3099    0.0000 H   0  0  0  0  0  0  0  0  0  0  0  0
    5.4203    1.8326    0.0000 H   0  0  0  0  0  0  0  0  0  0  0  0
   12.3982   -3.0054    0.0000 H   0  0  0  0  0  0  0  0  0  0  0  0
   13.1911   -3.0874    0.0000 H   0  0  0  0  0  0  0  0  0  0  0  0
    4.6912    2.9254    0.0000 H   0  0  0  0  0  0  0  0  0  0  0  0
    4.0464    2.4569    0.0000 H   0  0  0  0  0  0  0  0  0  0  0  0
   11.9731    1.0750    0.0000 H   0  0  0  0  0  0  0  0  0  0  0  0
    7.5542    0.2650    0.0000 H   0  0  0  0  0  0  0  0  0  0  0  0
    9.1847   -2.0294    0.0000 H   0  0  0  0  0  0  0  0  0  0  0  0
   11.1912   -3.7099    0.0000 H   0  0  0  0  0  0  0  0  0  0  0  0
    7.7349    4.3452    0.0000 H   0  0  0  0  0  0  0  0  0  0  0  0
    5.1191    4.2558    0.0000 H   0  0  0  0  0  0  0  0  0  0  0  0
    9.4941    3.3850    0.0000 H   0  0  0  0  0  0  0  0  0  0  0  0
    8.4203    3.3850    0.0000 H   0  0  0  0  0  0  0  0  0  0  0  0
   14.8996   -1.3760    0.0000 H   0  0  0  0  0  0  0  0  0  0  0  0
    2.0000    0.6179    0.0000 H   0  0  0  0  0  0  0  0  0  0  0  0
    3.9176    0.0422    0.0000 H   0  0  0  0  0  0  0  0  0  0  0  0
   16.3340   -4.3452    0.0000 H   0  0  0  0  0  0  0  0  0  0  0  0
   19.3881   -3.4414    0.0000 H   0  0  0  0  0  0  0  0  0  0  0  0
   18.3453   -1.7322    0.0000 H   0  0  0  0  0  0  0  0  0  0  0  0
  1 11  1  0  0  0  0
  1 13  1  0  0  0  0
  1 14  1  0  0  0  0
  1 17  2  0  0  0  0
  2 12  1  0  0  0  0
  2 15  1  0  0  0  0
  2 16  1  0  0  0  0
  2 18  2  0  0  0  0
  3 13  1  0  0  0  0
  3 19  1  0  0  0  0
  3 20  1  0  0  0  0
  3 21  2  0  0  0  0
  4 19  1  0  0  0  0
  4 22  1  0  0  0  0
  4 23  1  0  0  0  0
  4 24  2  0  0  0  0
  5 30  1  0  0  0  0
  5 35  1  0  0  0  0
  6 33  1  0  0  0  0
  6 37  1  0  0  0  0
  7 31  1  0  0  0  0
  7 59  1  0  0  0  0
  8 32  1  0  0  0  0
  8 60  1  0  0  0  0
  9 34  1  0  0  0  0
  9 61  1  0  0  0  0
 10 36  1  0  0  0  0
 10 62  1  0  0  0  0
 11 39  1  0  0  0  0
 12 40  1  0  0  0  0
 14 65  1  0  0  0  0
 15 66  1  0  0  0  0
 16 67  1  0  0  0  0
 20 68  1  0  0  0  0
 22 69  1  0  0  0  0
 23 70  1  0  0  0  0
 25 30  1  0  0  0  0
 25 38  1  0  0  0  0
 25 43  1  0  0  0  0
 26 33  1  0  0  0  0
 26 41  2  0  0  0  0
 26 44  1  0  0  0  0
 27 38  1  0  0  0  0
 27 44  2  0  0  0  0
 28 42  1  0  0  0  0
 28 43  2  0  0  0  0
 29 41  1  0  0  0  0
 29 63  1  0  0  0  0
 29 64  1  0  0  0  0
 30 31  1  0  0  0  0
 30 45  1  0  0  0  0
 31 32  1  0  0  0  0
 31 46  1  0  0  0  0
 32 35  1  0  0  0  0
 32 47  1  0  0  0  0
 33 34  1  0  0  0  0
 33 48  1  0  0  0  0
 34 36  1  0  0  0  0
 34 49  1  0  0  0  0
 35 39  1  0  0  0  0
 35 50  1  0  0  0  0
 36 37  1  0  0  0  0
 36 51  1  0  0  0  0
 37 40  1  0  0  0  0
 37 52  1  0  0  0  0
 38 42  2  0  0  0  0
 39 53  1  0  0  0  0
 39 54  1  0  0  0  0
 40 55  1  0  0  0  0
 40 56  1  0  0  0  0
 41 42  1  0  0  0  0
 43 57  1  0  0  0  0
 44 58  1  0  0  0  0
M  CHG  1  26   1
M  END
> <PUBCHEM_COMPOUND_CID>
1009

> <PUBCHEM_COMPOUND_CANONICALIZED>
1

> <PUBCHEM_CACTVS_COMPLEXITY>
1220

> <PUBCHEM_CACTVS_HBOND_ACCEPTOR>
23

> <PUBCHEM_CACTVS_HBOND_DONOR>
11

> <PUBCHEM_CACTVS_ROTATABLE_BOND>
12

> <PUBCHEM_CACTVS_SUBSKEYS>
AAADceBzvgOAAAAAAAAAAAAAAAAAAWJEgAAsAAAAAAAAAFgB+AAAHgAQCCAACBzhlwYF8L9MFxCgQQZhZICAgC0REKABUCAoVBCDWAJAyEAeRAgPAALTACDwMAIAAAAAAAAAAAAAAAAAAAAAAAAAAAAAAA==

> <PUBCHEM_IUPAC_OPENEYE_NAME>
[[5-[6-amino-1-[3,4-dihydroxy-5-(phosphonooxymethyl)tetrahydrofuran-2-yl]purin-1-ium-9-yl]-3,4-dihydroxy-tetrahydrofuran-2-yl]methoxy-hydroxy-phosphoryl] phosphono hydrogen phosphate

> <PUBCHEM_IUPAC_CAS_NAME>
[[5-[6-amino-1-[3,4-dihydroxy-5-(phosphonooxymethyl)-2-oxolanyl]-9-purin-1-iumyl]-3,4-dihydroxy-2-oxolanyl]methoxy-hydroxyphosphoryl] phosphono hydrogen phosphate

> <PUBCHEM_IUPAC_NAME_MARKUP>
[[5-[6-amino-1-[3,4-dihydroxy-5-(phosphonooxymethyl)oxolan-2-yl]purin-1-ium-9-yl]-3,4-dihydroxyoxolan-2-yl]methoxy-hydroxyphosphoryl] phosphono hydrogen phosphate

> <PUBCHEM_IUPAC_NAME>
[[5-[6-amino-1-[3,4-dihydroxy-5-(phosphonooxymethyl)oxolan-2-yl]purin-1-ium-9-yl]-3,4-dihydroxyoxolan-2-yl]methoxy-hydroxyphosphoryl] phosphono hydrogen phosphate

> <PUBCHEM_IUPAC_SYSTEMATIC_NAME>
[[5-[6-azanyl-1-[3,4-bis(oxidanyl)-5-(phosphonooxymethyl)oxolan-2-yl]purin-1-ium-9-yl]-3,4-bis(oxidanyl)oxolan-2-yl]methoxy-oxidanyl-phosphoryl] phosphono hydrogen phosphate

> <PUBCHEM_IUPAC_TRADITIONAL_NAME>
[[5-[6-amino-1-[3,4-dihydroxy-5-(phosphonooxymethyl)tetrahydrofuran-2-yl]purin-1-ium-9-yl]-3,4-dihydroxy-tetrahydrofuran-2-yl]methoxy-hydroxy-phosphoryl] phosphono hydrogen phosphate

> <PUBCHEM_IUPAC_INCHI>
InChI=1S/C15H25N5O20P4/c16-12-7-13(18-4-19(12)14-10(23)8(21)5(37-14)1-35-41(25,26)27)20(3-17-7)15-11(24)9(22)6(38-15)2-36-43(31,32)40-44(33,34)39-42(28,29)30/h3-6,8-11,14-16,21-24H,1-2H2,(H6,25,26,27,28,29,30,31,32,33,34)/p+1

> <PUBCHEM_IUPAC_INCHIKEY>
KYTPWZMUSLPBJZ-UHFFFAOYSA-O

> <PUBCHEM_XLOGP3>
-8.8

> <PUBCHEM_EXACT_MASS>
720.01216123

> <PUBCHEM_MOLECULAR_FORMULA>
C15H26N5O20P4+

> <PUBCHEM_MOLECULAR_WEIGHT>
720.28

> <PUBCHEM_SMILES>
C1=NC2=C(N1C3C(C(C(O3)COP(=O)(O)OP(=O)(O)OP(=O)(O)O)O)O)N=C[N+](=C2N)C4C(C(C(O4)COP(=O)(O)O)O)O

> <PUBCHEM_CONNECTIVITY_SMILES>
C1=NC2=C(N1C3C(C(C(O3)COP(=O)(O)OP(=O)(O)OP(=O)(O)O)O)O)N=C[N+](=C2N)C4C(C(C(O4)COP(=O)(O)O)O)O

> <PUBCHEM_CACTVS_TPSA>
387

> <PUBCHEM_MONOISOTOPIC_WEIGHT>
720.01216123

> <PUBCHEM_TOTAL_CHARGE>
1

> <PUBCHEM_HEAVY_ATOM_COUNT>
44

> <PUBCHEM_ATOM_DEF_STEREO_COUNT>
0

> <PUBCHEM_ATOM_UDEF_STEREO_COUNT>
8

> <PUBCHEM_BOND_DEF_STEREO_COUNT>
0

> <PUBCHEM_BOND_UDEF_STEREO_COUNT>
0

> <PUBCHEM_ISOTOPIC_ATOM_COUNT>
0

> <PUBCHEM_COMPONENT_COUNT>
1

> <PUBCHEM_CACTVS_TAUTO_COUNT>
-1

> <PUBCHEM_COORDINATE_TYPE>
1
5
255

> <PUBCHEM_BONDANNOTATIONS>
36  10  3
30  25  3
25  38  8
25  43  8
33  26  3
26  41  8
26  44  8
27  38  8
27  44  8
28  42  8
28  43  8
35  39  3
37  40  3
38  42  8
41  42  8
31  7  3
32  8  3
34  9  3

$$$$
