62678
  -OEChem-08152606172D

  6  5  0     0  0  0  0  0  0999 V2000
    3.8606    0.4677    0.0000 Br  0  0  0  0  0  0  0  0  0  0  0  0
    2.0000    0.0722    0.0000 Br  0  0  0  0  0  0  0  0  0  0  0  0
    2.5878   -0.9458    0.0000 Br  0  0  0  0  0  0  0  0  0  0  0  0
    2.7866    0.9458    0.0000 Br  0  0  0  0  0  0  0  0  0  0  0  0
    3.7377   -0.7014    0.0000 Br  0  0  0  0  0  0  0  0  0  0  0  0
    2.9945   -0.0323    0.0000 P   0  0  0  0  0  0  0  0  0  0  0  0
  1  6  1  0  0  0  0
  2  6  1  0  0  0  0
  3  6  1  0  0  0  0
  4  6  1  0  0  0  0
  5  6  1  0  0  0  0
M  END
> <PUBCHEM_COMPOUND_CID>
62678

> <PUBCHEM_COMPOUND_CANONICALIZED>
1

> <PUBCHEM_CACTVS_COMPLEXITY>
37.1

> <PUBCHEM_CACTVS_HBOND_ACCEPTOR>
0

> <PUBCHEM_CACTVS_HBOND_DONOR>
0

> <PUBCHEM_CACTVS_ROTATABLE_BOND>
0

> <PUBCHEM_CACTVS_SUBSKEYS>
AAADcQAAAAIAHAAAAAAAAAAAAAAAAAAAAAAAAAAAAAAAAAAAAAAAAAAAAAAAAAAAAAAAAAAAAAAAAAAAAAAAAAAAAAAAAAAAAAAAAAAAAAAAAAAAAAAAAAAAAAAAAAAAAAAAAAAAAAAAAAAAAAAAAAAAAA==

> <PUBCHEM_IUPAC_OPENEYE_NAME>
pentabromo-lambda5-phosphane

> <PUBCHEM_IUPAC_CAS_NAME>
pentabromophosphorane

> <PUBCHEM_IUPAC_NAME_MARKUP>
pentabromo-&lambda;<SUP>5</SUP>-phosphane

> <PUBCHEM_IUPAC_NAME>
pentabromo-lambda5-phosphane

> <PUBCHEM_IUPAC_SYSTEMATIC_NAME>
pentakis(bromanyl)-lambda5-phosphane

> <PUBCHEM_IUPAC_TRADITIONAL_NAME>
pentabromophosphorane

> <PUBCHEM_IUPAC_INCHI>
InChI=1S/Br5P/c1-6(2,3,4)5

> <PUBCHEM_IUPAC_INCHIKEY>
QRKVRHZNLKTPGF-UHFFFAOYSA-N

> <PUBCHEM_XLOGP3_AA>
4.7

> <PUBCHEM_EXACT_MASS>
429.56135

> <PUBCHEM_MOLECULAR_FORMULA>
Br5P

> <PUBCHEM_MOLECULAR_WEIGHT>
430.49

> <PUBCHEM_SMILES>
P(Br)(Br)(Br)(Br)Br

> <PUBCHEM_CONNECTIVITY_SMILES>
P(Br)(Br)(Br)(Br)Br

> <PUBCHEM_CACTVS_TPSA>
0

> <PUBCHEM_MONOISOTOPIC_WEIGHT>
425.56545

> <PUBCHEM_TOTAL_CHARGE>
0

> <PUBCHEM_HEAVY_ATOM_COUNT>
6

> <PUBCHEM_ATOM_DEF_STEREO_COUNT>
0

> <PUBCHEM_ATOM_UDEF_STEREO_COUNT>
0

> <PUBCHEM_BOND_DEF_STEREO_COUNT>
0

> <PUBCHEM_BOND_UDEF_STEREO_COUNT>
0

> <PUBCHEM_ISOTOPIC_ATOM_COUNT>
0

> <PUBCHEM_COMPONENT_COUNT>
1

> <PUBCHEM_CACTVS_TAUTO_COUNT>
-1

> <PUBCHEM_COORDINATE_TYPE>
1
5
255

$$$$
