107909
  -OEChem-08152604283D

  7  6  0     0  0  0  0  0  0999 V2000
   -0.0001   -0.0001    0.5949 P   0  0  0  0  0  0  0  0  0  0  0  0
    0.6496   -1.2514   -0.1983 O   0  0  0  0  0  0  0  0  0  0  0  0
   -1.4085    0.0632   -0.1983 O   0  0  0  0  0  0  0  0  0  0  0  0
    0.7590    1.1882   -0.1983 O   0  0  0  0  0  0  0  0  0  0  0  0
    0.1836   -2.0828    0.0340 H   0  0  0  0  0  0  0  0  0  0  0  0
   -1.9667   -0.7094    0.0337 H   0  0  0  0  0  0  0  0  0  0  0  0
    1.7128    1.1971    0.0306 H   0  0  0  0  0  0  0  0  0  0  0  0
  1  2  1  0  0  0  0
  1  3  1  0  0  0  0
  1  4  1  0  0  0  0
  2  5  1  0  0  0  0
  3  6  1  0  0  0  0
  4  7  1  0  0  0  0
M  END
> <PUBCHEM_COMPOUND_CID>
107909

> <PUBCHEM_CONFORMER_RMSD>
0.4

> <PUBCHEM_CONFORMER_DIVERSEORDER>
1

> <PUBCHEM_MMFF94_PARTIAL_CHARGES>
7
1 0.3
2 -0.6
3 -0.6
4 -0.6
5 0.5
6 0.5
7 0.5

> <PUBCHEM_EFFECTIVE_ROTOR_COUNT>
0

> <PUBCHEM_PHARMACOPHORE_FEATURES>
3
1 2 acceptor
1 3 acceptor
1 4 acceptor

> <PUBCHEM_HEAVY_ATOM_COUNT>
4

> <PUBCHEM_ATOM_DEF_STEREO_COUNT>
0

> <PUBCHEM_ATOM_UDEF_STEREO_COUNT>
0

> <PUBCHEM_BOND_DEF_STEREO_COUNT>
0

> <PUBCHEM_BOND_UDEF_STEREO_COUNT>
0

> <PUBCHEM_ISOTOPIC_ATOM_COUNT>
0

> <PUBCHEM_COMPONENT_COUNT>
1

> <PUBCHEM_CACTVS_TAUTO_COUNT>
2

> <PUBCHEM_CONFORMER_ID>
0001A58500000001

> <PUBCHEM_MMFF94_ENERGY>
0.0601

> <PUBCHEM_FEATURE_SELFOVERLAP>
15.301

> <PUBCHEM_SHAPE_FINGERPRINT>
139733 1 11780419338201037843
20096714 4 7913630955717764166
21015797 1 11711740547610936289
5943 1 10840742972614508873

> <PUBCHEM_SHAPE_MULTIPOLES>
68.56
1.2
1.2
0.71
0.12
0.43
-0.14
-0.43
0.14
-0.12
0.14
0
0
0

> <PUBCHEM_SHAPE_SELFOVERLAP>
104.701

> <PUBCHEM_SHAPE_VOLUME>
50.7

> <PUBCHEM_COORDINATE_TYPE>
2
5
10

$$$$
