83485
  -OEChem-08152605033D

  4  3  0     0  0  0  0  0  0999 V2000
   -1.4253   -1.5400    0.2943 I   0  0  0  0  0  0  0  0  0  0  0  0
    2.0466   -0.4643    0.2942 I   0  0  0  0  0  0  0  0  0  0  0  0
   -0.6211    2.0043    0.2943 I   0  0  0  0  0  0  0  0  0  0  0  0
   -0.0001    0.0000   -0.8828 P   0  0  0  0  0  0  0  0  0  0  0  0
  1  4  1  0  0  0  0
  2  4  1  0  0  0  0
  3  4  1  0  0  0  0
M  END
> <PUBCHEM_COMPOUND_CID>
83485

> <PUBCHEM_CONFORMER_RMSD>
0.4

> <PUBCHEM_CONFORMER_DIVERSEORDER>
1

> <PUBCHEM_MMFF94_PARTIAL_CHARGES>
4
1 -0.07
2 -0.07
3 -0.07
4 0.2

> <PUBCHEM_EFFECTIVE_ROTOR_COUNT>
0

> <PUBCHEM_PHARMACOPHORE_FEATURES>
0

> <PUBCHEM_HEAVY_ATOM_COUNT>
4

> <PUBCHEM_ATOM_DEF_STEREO_COUNT>
0

> <PUBCHEM_ATOM_UDEF_STEREO_COUNT>
0

> <PUBCHEM_BOND_DEF_STEREO_COUNT>
0

> <PUBCHEM_BOND_UDEF_STEREO_COUNT>
0

> <PUBCHEM_ISOTOPIC_ATOM_COUNT>
0

> <PUBCHEM_COMPONENT_COUNT>
1

> <PUBCHEM_CACTVS_TAUTO_COUNT>
1

> <PUBCHEM_CONFORMER_ID>
0001461D00000001

> <PUBCHEM_MMFF94_ENERGY>
0

> <PUBCHEM_FEATURE_SELFOVERLAP>
0

> <PUBCHEM_SHAPE_FINGERPRINT>
139733 1 11239738390788284726
20096714 4 17267207022126780788
23552449 1 18412820283328386080
23552449 11 17906169912279954899
5943 1 14028397876422377829

> <PUBCHEM_SHAPE_MULTIPOLES>
121.97
2.57
2.57
1.03
1.72
0.66
-0.07
-0.66
0.44
-1.72
0.44
0
0
0

> <PUBCHEM_SHAPE_SELFOVERLAP>
144.098

> <PUBCHEM_SHAPE_VOLUME>
108.1

> <PUBCHEM_COORDINATE_TYPE>
2
5
10

$$$$
