82844
  -OEChem-08152606192D

  2  1  0     0  0  0  0  0  0999 V2000
    3.0000    0.0000    0.0000 Pt  0  0  0  0  0  0  0  0  0  0  0  0
    2.0000    0.0000    0.0000 O   0  0  0  0  0  0  0  0  0  0  0  0
  1  2  2  0  0  0  0
M  END
> <PUBCHEM_COMPOUND_CID>
82844

> <PUBCHEM_COMPOUND_CANONICALIZED>
1

> <PUBCHEM_CACTVS_COMPLEXITY>
2

> <PUBCHEM_CACTVS_HBOND_ACCEPTOR>
1

> <PUBCHEM_CACTVS_HBOND_DONOR>
0

> <PUBCHEM_CACTVS_ROTATABLE_BOND>
0

> <PUBCHEM_CACTVS_SUBSKEYS>
AAADcQAAIAAAAAAAAAAABAAAAAAAAAAAAAAAAAAAAAAAAAAAAAAAAAAAAAAAAAAAAAAAAAAAAAAAAAAAAAAAAAAAAAAAAAAAAAAAAAAAAAAAAAAAAAAAAAAAAAAAAAAAAAAAAAAAAAAAAAAAAAAAAAAAAA==

> <PUBCHEM_IUPAC_OPENEYE_NAME>
oxoplatinum

> <PUBCHEM_IUPAC_CAS_NAME>
oxoplatinum

> <PUBCHEM_IUPAC_NAME_MARKUP>
oxoplatinum

> <PUBCHEM_IUPAC_NAME>
oxoplatinum

> <PUBCHEM_IUPAC_SYSTEMATIC_NAME>
oxidanylideneplatinum

> <PUBCHEM_IUPAC_TRADITIONAL_NAME>
ketoplatinum

> <PUBCHEM_IUPAC_INCHI>
InChI=1S/O.Pt

> <PUBCHEM_IUPAC_INCHIKEY>
MUMZUERVLWJKNR-UHFFFAOYSA-N

> <PUBCHEM_EXACT_MASS>
210.959709

> <PUBCHEM_MOLECULAR_FORMULA>
OPt

> <PUBCHEM_MOLECULAR_WEIGHT>
211.08

> <PUBCHEM_SMILES>
O=[Pt]

> <PUBCHEM_CONNECTIVITY_SMILES>
O=[Pt]

> <PUBCHEM_CACTVS_TPSA>
17.1

> <PUBCHEM_MONOISOTOPIC_WEIGHT>
210.959709

> <PUBCHEM_TOTAL_CHARGE>
0

> <PUBCHEM_HEAVY_ATOM_COUNT>
2

> <PUBCHEM_ATOM_DEF_STEREO_COUNT>
0

> <PUBCHEM_ATOM_UDEF_STEREO_COUNT>
0

> <PUBCHEM_BOND_DEF_STEREO_COUNT>
0

> <PUBCHEM_BOND_UDEF_STEREO_COUNT>
0

> <PUBCHEM_ISOTOPIC_ATOM_COUNT>
0

> <PUBCHEM_COMPONENT_COUNT>
1

> <PUBCHEM_CACTVS_TAUTO_COUNT>
-1

> <PUBCHEM_COORDINATE_TYPE>
1
5
255

$$$$
