10960186
  -OEChem-08152605432D

 31 28  0     0  0  0  0  0  0999 V2000
    5.4641   -0.5000    0.0000 Pt  0  0  0  0  0  0  0  0  0  0  0  0
    6.3301   -0.0000    0.0000 O   0  0  0  0  0  0  0  0  0  0  0  0
    4.5981   -0.0000    0.0000 O   0  0  0  0  0  0  0  0  0  0  0  0
    7.1962    1.5000    0.0000 O   0  0  0  0  0  0  0  0  0  0  0  0
    3.7321    1.5000    0.0000 O   0  0  0  0  0  0  0  0  0  0  0  0
    7.1962   -0.5000    0.0000 C   0  0  0  0  0  0  0  0  0  0  0  0
    3.7321   -0.5000    0.0000 C   0  0  0  0  0  0  0  0  0  0  0  0
    8.0622    0.0000    0.0000 C   0  0  0  0  0  0  0  0  0  0  0  0
    2.8660   -0.0000    0.0000 C   0  0  0  0  0  0  0  0  0  0  0  0
    7.1962   -1.5000    0.0000 C   0  0  0  0  0  0  0  0  0  0  0  0
    3.7321   -1.5000    0.0000 C   0  0  0  0  0  0  0  0  0  0  0  0
    8.0622    1.0000    0.0000 C   0  0  0  0  0  0  0  0  0  0  0  0
    2.8660    1.0000    0.0000 C   0  0  0  0  0  0  0  0  0  0  0  0
    8.9282    1.5000    0.0000 C   0  0  0  0  0  0  0  0  0  0  0  0
    2.0000    1.5000    0.0000 C   0  0  0  0  0  0  0  0  0  0  0  0
    8.5991   -0.3100    0.0000 H   0  0  0  0  0  0  0  0  0  0  0  0
    2.3291   -0.3100    0.0000 H   0  0  0  0  0  0  0  0  0  0  0  0
    6.3301    0.6200    0.0000 H   0  0  0  0  0  0  0  0  0  0  0  0
    4.5981    0.6200    0.0000 H   0  0  0  0  0  0  0  0  0  0  0  0
    6.5762   -1.5000    0.0000 H   0  0  0  0  0  0  0  0  0  0  0  0
    7.1962   -2.1200    0.0000 H   0  0  0  0  0  0  0  0  0  0  0  0
    7.8162   -1.5000    0.0000 H   0  0  0  0  0  0  0  0  0  0  0  0
    3.1121   -1.5000    0.0000 H   0  0  0  0  0  0  0  0  0  0  0  0
    3.7321   -2.1200    0.0000 H   0  0  0  0  0  0  0  0  0  0  0  0
    4.3521   -1.5000    0.0000 H   0  0  0  0  0  0  0  0  0  0  0  0
    9.2382    0.9631    0.0000 H   0  0  0  0  0  0  0  0  0  0  0  0
    9.4651    1.8100    0.0000 H   0  0  0  0  0  0  0  0  0  0  0  0
    8.6182    2.0369    0.0000 H   0  0  0  0  0  0  0  0  0  0  0  0
    2.3100    2.0369    0.0000 H   0  0  0  0  0  0  0  0  0  0  0  0
    1.4631    1.8100    0.0000 H   0  0  0  0  0  0  0  0  0  0  0  0
    1.6900    0.9631    0.0000 H   0  0  0  0  0  0  0  0  0  0  0  0
  2  6  1  0  0  0  0
  2 18  1  0  0  0  0
  3  7  1  0  0  0  0
  3 19  1  0  0  0  0
  4 12  2  0  0  0  0
  5 13  2  0  0  0  0
  6  8  2  0  0  0  0
  6 10  1  0  0  0  0
  7  9  2  0  0  0  0
  7 11  1  0  0  0  0
  8 12  1  0  0  0  0
  8 16  1  0  0  0  0
  9 13  1  0  0  0  0
  9 17  1  0  0  0  0
 10 20  1  0  0  0  0
 10 21  1  0  0  0  0
 10 22  1  0  0  0  0
 11 23  1  0  0  0  0
 11 24  1  0  0  0  0
 11 25  1  0  0  0  0
 12 14  1  0  0  0  0
 13 15  1  0  0  0  0
 14 26  1  0  0  0  0
 14 27  1  0  0  0  0
 14 28  1  0  0  0  0
 15 29  1  0  0  0  0
 15 30  1  0  0  0  0
 15 31  1  0  0  0  0
M  END
> <PUBCHEM_COMPOUND_CID>
10960186

> <PUBCHEM_COMPOUND_CANONICALIZED>
1

> <PUBCHEM_CACTVS_COMPLEXITY>
239

> <PUBCHEM_CACTVS_HBOND_ACCEPTOR>
4

> <PUBCHEM_CACTVS_HBOND_DONOR>
2

> <PUBCHEM_CACTVS_ROTATABLE_BOND>
2

> <PUBCHEM_CACTVS_SUBSKEYS>
AAADceBwOAAAAAAAAAAABAAAAAAAAAAAAAAAAAAAAAAAAAAAAAAAGgAACAAACASAgAACAAAAAgCIAKBSAAAAAAAgIAAACAAAAEgAAAAAAQAAAAAAAAAIAQIAAAAAAAAAAAAAAAAAAAAAAAAAAAAAAAAAAA==

> <PUBCHEM_IUPAC_OPENEYE_NAME>
bis((Z)-4-hydroxypent-3-en-2-one);platinum

> <PUBCHEM_IUPAC_CAS_NAME>
bis((Z)-4-hydroxy-3-penten-2-one);platinum

> <PUBCHEM_IUPAC_NAME_MARKUP>
bis((<I>Z</I>)-4-hydroxypent-3-en-2-one);platinum

> <PUBCHEM_IUPAC_NAME>
bis((Z)-4-hydroxypent-3-en-2-one);platinum

> <PUBCHEM_IUPAC_SYSTEMATIC_NAME>
bis((Z)-4-oxidanylpent-3-en-2-one);platinum

> <PUBCHEM_IUPAC_TRADITIONAL_NAME>
bis((Z)-4-hydroxypent-3-en-2-one);platinum

> <PUBCHEM_IUPAC_INCHI>
InChI=1S/2C5H8O2.Pt/c2*1-4(6)3-5(2)7;/h2*3,6H,1-2H3;/b2*4-3-;

> <PUBCHEM_IUPAC_INCHIKEY>
VEJOYRPGKZZTJW-FDGPNNRMSA-N

> <PUBCHEM_EXACT_MASS>
395.069653

> <PUBCHEM_MOLECULAR_FORMULA>
C10H16O4Pt

> <PUBCHEM_MOLECULAR_WEIGHT>
395.32

> <PUBCHEM_SMILES>
C/C(=C/C(=O)C)/O.C/C(=C/C(=O)C)/O.[Pt]

> <PUBCHEM_CONNECTIVITY_SMILES>
CC(=CC(=O)C)O.CC(=CC(=O)C)O.[Pt]

> <PUBCHEM_CACTVS_TPSA>
74.6

> <PUBCHEM_MONOISOTOPIC_WEIGHT>
395.069653

> <PUBCHEM_TOTAL_CHARGE>
0

> <PUBCHEM_HEAVY_ATOM_COUNT>
15

> <PUBCHEM_ATOM_DEF_STEREO_COUNT>
0

> <PUBCHEM_ATOM_UDEF_STEREO_COUNT>
0

> <PUBCHEM_BOND_DEF_STEREO_COUNT>
2

> <PUBCHEM_BOND_UDEF_STEREO_COUNT>
0

> <PUBCHEM_ISOTOPIC_ATOM_COUNT>
0

> <PUBCHEM_COMPONENT_COUNT>
3

> <PUBCHEM_CACTVS_TAUTO_COUNT>
-1

> <PUBCHEM_NONSTANDARDBOND>
1  2  6
1  3  6

> <PUBCHEM_COORDINATE_TYPE>
1
5
255

$$$$
