82861
  -OEChem-08152606422D

  2  1  0     0  0  0  0  0  0999 V2000
    3.0000    0.0000    0.0000 Pt  0  0  0  0  0  0  0  0  0  0  0  0
    2.0000    0.0000    0.0000 S   0  0  0  0  0  0  0  0  0  0  0  0
  1  2  2  0  0  0  0
M  END
> <PUBCHEM_COMPOUND_CID>
82861

> <PUBCHEM_COMPOUND_CANONICALIZED>
1

> <PUBCHEM_CACTVS_COMPLEXITY>
2

> <PUBCHEM_CACTVS_HBOND_ACCEPTOR>
1

> <PUBCHEM_CACTVS_HBOND_DONOR>
0

> <PUBCHEM_CACTVS_ROTATABLE_BOND>
0

> <PUBCHEM_CACTVS_SUBSKEYS>
AAADcQAAAABAAAAAAAAABAAAAAAAAAAAAAAAAAAAAAAAAAAAAAAAAAAAAAAAAAAAAAAAAAAAAAAAAAAAAAAAAAAAAAAAAAAAAAAAAAAAAAAAAAAAAAAAAAAAAAAAAAAAAAAAAAAAAAAAAAAAAAAAAAAAAA==

> <PUBCHEM_IUPAC_OPENEYE_NAME>
thioxoplatinum

> <PUBCHEM_IUPAC_CAS_NAME>
sulfanylideneplatinum

> <PUBCHEM_IUPAC_NAME_MARKUP>
sulfanylideneplatinum

> <PUBCHEM_IUPAC_NAME>
sulfanylideneplatinum

> <PUBCHEM_IUPAC_SYSTEMATIC_NAME>
sulfanylideneplatinum

> <PUBCHEM_IUPAC_TRADITIONAL_NAME>
thioxoplatinum

> <PUBCHEM_IUPAC_INCHI>
InChI=1S/Pt.S

> <PUBCHEM_IUPAC_INCHIKEY>
JOKPITBUODAHEN-UHFFFAOYSA-N

> <PUBCHEM_EXACT_MASS>
226.936865

> <PUBCHEM_MOLECULAR_FORMULA>
PtS

> <PUBCHEM_MOLECULAR_WEIGHT>
227.15

> <PUBCHEM_SMILES>
S=[Pt]

> <PUBCHEM_CONNECTIVITY_SMILES>
S=[Pt]

> <PUBCHEM_CACTVS_TPSA>
32.1

> <PUBCHEM_MONOISOTOPIC_WEIGHT>
226.936865

> <PUBCHEM_TOTAL_CHARGE>
0

> <PUBCHEM_HEAVY_ATOM_COUNT>
2

> <PUBCHEM_ATOM_DEF_STEREO_COUNT>
0

> <PUBCHEM_ATOM_UDEF_STEREO_COUNT>
0

> <PUBCHEM_BOND_DEF_STEREO_COUNT>
0

> <PUBCHEM_BOND_UDEF_STEREO_COUNT>
0

> <PUBCHEM_ISOTOPIC_ATOM_COUNT>
0

> <PUBCHEM_COMPONENT_COUNT>
1

> <PUBCHEM_CACTVS_TAUTO_COUNT>
-1

> <PUBCHEM_COORDINATE_TYPE>
1
5
255

$$$$
