139624
  -OEChem-08152604422D

  4  3  0     0  0  0  0  0  0999 V2000
    3.0000   -0.5000    0.0000 Pu  0  0  0  0  0  0  0  0  0  0  0  0
    3.0000    0.5000    0.0000 F   0  0  0  0  0  0  0  0  0  0  0  0
    2.0000   -0.5000    0.0000 F   0  0  0  0  0  0  0  0  0  0  0  0
    4.0000   -0.5000    0.0000 F   0  0  0  0  0  0  0  0  0  0  0  0
  1  2  1  0  0  0  0
  1  3  1  0  0  0  0
  1  4  1  0  0  0  0
M  END
> <PUBCHEM_COMPOUND_CID>
139624

> <PUBCHEM_COMPOUND_CANONICALIZED>
1

> <PUBCHEM_CACTVS_COMPLEXITY>
8

> <PUBCHEM_CACTVS_HBOND_ACCEPTOR>
3

> <PUBCHEM_CACTVS_HBOND_DONOR>
0

> <PUBCHEM_CACTVS_ROTATABLE_BOND>
0

> <PUBCHEM_CACTVS_SUBSKEYS>
AAADcQAAAYAAAAAAAAAAAAAAAAAAAAAAAAAAAAAAAAAAAAAAAAAAAAAAAAAAAAAAAAAAAAAAAAAAAAAAAAAAAAAAAAAAAAAAAAAAAAAAAAAAAAAAAAAAAAAAAAAAAAAAAAAAAAAAAAAAAAAAAAAAAAAAAA==

> <PUBCHEM_IUPAC_OPENEYE_NAME>
trifluoroplutonium

> <PUBCHEM_IUPAC_CAS_NAME>
trifluoroplutonium

> <PUBCHEM_IUPAC_NAME_MARKUP>
trifluoroplutonium

> <PUBCHEM_IUPAC_NAME>
trifluoroplutonium

> <PUBCHEM_IUPAC_SYSTEMATIC_NAME>
tris(fluoranyl)plutonium

> <PUBCHEM_IUPAC_TRADITIONAL_NAME>
trifluoroplutonium

> <PUBCHEM_IUPAC_INCHI>
InChI=1S/3FH.Pu/h3*1H;/q;;;+3/p-3

> <PUBCHEM_IUPAC_INCHIKEY>
DBYIUAMLRDFZJJ-UHFFFAOYSA-K

> <PUBCHEM_EXACT_MASS>
301.05941

> <PUBCHEM_MOLECULAR_FORMULA>
F3Pu

> <PUBCHEM_MOLECULAR_WEIGHT>
301.05941

> <PUBCHEM_SMILES>
F[Pu](F)F

> <PUBCHEM_CONNECTIVITY_SMILES>
F[Pu](F)F

> <PUBCHEM_CACTVS_TPSA>
0

> <PUBCHEM_MONOISOTOPIC_WEIGHT>
301.05941

> <PUBCHEM_TOTAL_CHARGE>
0

> <PUBCHEM_HEAVY_ATOM_COUNT>
4

> <PUBCHEM_ATOM_DEF_STEREO_COUNT>
0

> <PUBCHEM_ATOM_UDEF_STEREO_COUNT>
0

> <PUBCHEM_BOND_DEF_STEREO_COUNT>
0

> <PUBCHEM_BOND_UDEF_STEREO_COUNT>
0

> <PUBCHEM_ISOTOPIC_ATOM_COUNT>
0

> <PUBCHEM_COMPONENT_COUNT>
1

> <PUBCHEM_CACTVS_TAUTO_COUNT>
-1

> <PUBCHEM_COORDINATE_TYPE>
1
5
255

$$$$
