15715935
  -OEChem-08152605162D

 20 15  0     0  0  0  0  0  0999 V2000
    0.0000    4.5000    0.0000 Pu  0  0  0  0  0  0  0  0  0  0  0  0
    3.5490    0.0000    0.0000 Pu  0  0  0  0  0  0  0  0  0  0  0  0
    7.0981    5.0000    0.0000 O   0  5  0  0  0  0  0  0  0  0  0  0
    9.6962    4.5000    0.0000 O   0  5  0  0  0  0  0  0  0  0  0  0
    5.0981    8.0000    0.0000 O   0  5  0  0  0  0  0  0  0  0  0  0
    2.5000    8.5000    0.0000 O   0  5  0  0  0  0  0  0  0  0  0  0
    5.0981    3.5000    0.0000 O   0  5  0  0  0  0  0  0  0  0  0  0
    2.5000    4.0000    0.0000 O   0  5  0  0  0  0  0  0  0  0  0  0
    7.9641    3.5000    0.0000 O   0  0  0  0  0  0  0  0  0  0  0  0
    8.8301    6.0000    0.0000 O   0  0  0  0  0  0  0  0  0  0  0  0
    4.2321    9.5000    0.0000 O   0  0  0  0  0  0  0  0  0  0  0  0
    3.3660    7.0000    0.0000 O   0  0  0  0  0  0  0  0  0  0  0  0
    4.2321    5.0000    0.0000 O   0  0  0  0  0  0  0  0  0  0  0  0
    3.3660    2.5000    0.0000 O   0  0  0  0  0  0  0  0  0  0  0  0
    7.9641    4.5000    0.0000 C   0  0  0  0  0  0  0  0  0  0  0  0
    8.8301    5.0000    0.0000 C   0  0  0  0  0  0  0  0  0  0  0  0
    4.2321    8.5000    0.0000 C   0  0  0  0  0  0  0  0  0  0  0  0
    3.3660    8.0000    0.0000 C   0  0  0  0  0  0  0  0  0  0  0  0
    4.2321    4.0000    0.0000 C   0  0  0  0  0  0  0  0  0  0  0  0
    3.3660    3.5000    0.0000 C   0  0  0  0  0  0  0  0  0  0  0  0
  3 15  1  0  0  0  0
  4 16  1  0  0  0  0
  5 17  1  0  0  0  0
  6 18  1  0  0  0  0
  7 19  1  0  0  0  0
  8 20  1  0  0  0  0
  9 15  2  0  0  0  0
 10 16  2  0  0  0  0
 11 17  2  0  0  0  0
 12 18  2  0  0  0  0
 13 19  2  0  0  0  0
 14 20  2  0  0  0  0
 15 16  1  0  0  0  0
 17 18  1  0  0  0  0
 19 20  1  0  0  0  0
M  CHG  6   3  -1   4  -1   5  -1   6  -1   7  -1   8  -1
M  END
> <PUBCHEM_COMPOUND_CID>
15715935

> <PUBCHEM_COMPOUND_CANONICALIZED>
1

> <PUBCHEM_CACTVS_COMPLEXITY>
60.5

> <PUBCHEM_CACTVS_HBOND_ACCEPTOR>
12

> <PUBCHEM_CACTVS_HBOND_DONOR>
0

> <PUBCHEM_CACTVS_ROTATABLE_BOND>
0

> <PUBCHEM_CACTVS_SUBSKEYS>
AAADcQBgPAAAAAAAAAAAAAAAAAAAAAAAAAAAAAAAAAAAAAAAAAAACgAAAAAAAAAAgAAACAAAAAAIAACQCAIAAAAAAAAAAABAAAABAAAAAAAAAAAAAAAAAAAAAAAAAAAAAAAAAAAAAAAAAAAAAAAAAAAAAA==

> <PUBCHEM_IUPAC_OPENEYE_NAME>
oxalate;plutonium

> <PUBCHEM_IUPAC_CAS_NAME>
oxalate;plutonium

> <PUBCHEM_IUPAC_NAME_MARKUP>
oxalate;plutonium

> <PUBCHEM_IUPAC_NAME>
oxalate;plutonium

> <PUBCHEM_IUPAC_SYSTEMATIC_NAME>
tris(ethanedioate);plutonium

> <PUBCHEM_IUPAC_TRADITIONAL_NAME>
oxalate;plutonium

> <PUBCHEM_IUPAC_INCHI>
InChI=1S/3C2H2O4.2Pu/c3*3-1(4)2(5)6;;/h3*(H,3,4)(H,5,6);;/p-6

> <PUBCHEM_IUPAC_INCHIKEY>
CJDNUMCWKCQINL-UHFFFAOYSA-H

> <PUBCHEM_EXACT_MASS>
752.06738

> <PUBCHEM_MOLECULAR_FORMULA>
C6O12Pu2-6

> <PUBCHEM_MOLECULAR_WEIGHT>
752.18

> <PUBCHEM_SMILES>
C(=O)(C(=O)[O-])[O-].C(=O)(C(=O)[O-])[O-].C(=O)(C(=O)[O-])[O-].[Pu].[Pu]

> <PUBCHEM_CONNECTIVITY_SMILES>
C(=O)(C(=O)[O-])[O-].C(=O)(C(=O)[O-])[O-].C(=O)(C(=O)[O-])[O-].[Pu].[Pu]

> <PUBCHEM_CACTVS_TPSA>
241

> <PUBCHEM_MONOISOTOPIC_WEIGHT>
752.06738

> <PUBCHEM_TOTAL_CHARGE>
-6

> <PUBCHEM_HEAVY_ATOM_COUNT>
20

> <PUBCHEM_ATOM_DEF_STEREO_COUNT>
0

> <PUBCHEM_ATOM_UDEF_STEREO_COUNT>
0

> <PUBCHEM_BOND_DEF_STEREO_COUNT>
0

> <PUBCHEM_BOND_UDEF_STEREO_COUNT>
0

> <PUBCHEM_ISOTOPIC_ATOM_COUNT>
0

> <PUBCHEM_COMPONENT_COUNT>
5

> <PUBCHEM_CACTVS_TAUTO_COUNT>
-1

> <PUBCHEM_COORDINATE_TYPE>
1
5
255

$$$$
