22753600
  -OEChem-08152606472D

 11  8  0     0  0  0  0  0  0999 V2000
    0.0000    2.4820    0.0000 Po  0  0  0  0  0 15  0  0  0  0  0  0
    3.3660    0.8660    0.0000 S   0  0  0  0  0  0  0  0  0  0  0  0
    3.3660    4.5981    0.0000 S   0  0  0  0  0  0  0  0  0  0  0  0
    2.5000    0.3660    0.0000 O   0  5  0  0  0  0  0  0  0  0  0  0
    2.8660    1.7320    0.0000 O   0  5  0  0  0  0  0  0  0  0  0  0
    2.5000    4.0981    0.0000 O   0  5  0  0  0  0  0  0  0  0  0  0
    2.8660    5.4641    0.0000 O   0  5  0  0  0  0  0  0  0  0  0  0
    4.2320    1.3660    0.0000 O   0  0  0  0  0  0  0  0  0  0  0  0
    3.8660    0.0000    0.0000 O   0  0  0  0  0  0  0  0  0  0  0  0
    4.2320    5.0981    0.0000 O   0  0  0  0  0  0  0  0  0  0  0  0
    3.8660    3.7320    0.0000 O   0  0  0  0  0  0  0  0  0  0  0  0
  2  4  1  0  0  0  0
  2  5  1  0  0  0  0
  2  8  2  0  0  0  0
  2  9  2  0  0  0  0
  3  6  1  0  0  0  0
  3  7  1  0  0  0  0
  3 10  2  0  0  0  0
  3 11  2  0  0  0  0
M  CHG  4   4  -1   5  -1   6  -1   7  -1
M  END
> <PUBCHEM_COMPOUND_CID>
22753600

> <PUBCHEM_COMPOUND_CANONICALIZED>
1

> <PUBCHEM_CACTVS_COMPLEXITY>
62.2

> <PUBCHEM_CACTVS_HBOND_ACCEPTOR>
8

> <PUBCHEM_CACTVS_HBOND_DONOR>
0

> <PUBCHEM_CACTVS_ROTATABLE_BOND>
0

> <PUBCHEM_CACTVS_SUBSKEYS>
AAADcQAAPABgAAAAAAAAAAAAAAAAAAAAAAAAAAAAAAAAAAAAAAAAAAAAAAAAAAAAAAAAAAAAAAAAAAAAADAAAAAAAAAAAAAAAAAAAAAAAAAAAAAAAAAAAAAAAAAAAAAAAAAAAAAAAAAAAAAAAAAAAAAAAA==

> <PUBCHEM_IUPAC_INCHI>
InChI=1S/2H2O4S.Po/c2*1-5(2,3)4;/h2*(H2,1,2,3,4);/p-4

> <PUBCHEM_IUPAC_INCHIKEY>
UTCNGOKFXYJBPX-UHFFFAOYSA-J

> <PUBCHEM_EXACT_MASS>
400.88589

> <PUBCHEM_MOLECULAR_FORMULA>
O8PoS2-4

> <PUBCHEM_MOLECULAR_WEIGHT>
401.11

> <PUBCHEM_SMILES>
[O-]S(=O)(=O)[O-].[O-]S(=O)(=O)[O-].[Po]

> <PUBCHEM_CONNECTIVITY_SMILES>
[O-]S(=O)(=O)[O-].[O-]S(=O)(=O)[O-].[Po]

> <PUBCHEM_CACTVS_TPSA>
177

> <PUBCHEM_MONOISOTOPIC_WEIGHT>
400.88589

> <PUBCHEM_TOTAL_CHARGE>
-4

> <PUBCHEM_HEAVY_ATOM_COUNT>
11

> <PUBCHEM_ATOM_DEF_STEREO_COUNT>
0

> <PUBCHEM_ATOM_UDEF_STEREO_COUNT>
0

> <PUBCHEM_BOND_DEF_STEREO_COUNT>
0

> <PUBCHEM_BOND_UDEF_STEREO_COUNT>
0

> <PUBCHEM_ISOTOPIC_ATOM_COUNT>
0

> <PUBCHEM_COMPONENT_COUNT>
3

> <PUBCHEM_CACTVS_TAUTO_COUNT>
-1

> <PUBCHEM_COORDINATE_TYPE>
1
5
255

$$$$
