57417319
  -OEChem-08152606262D

  3  0  0     0  0  0  0  0  0999 V2000
    2.5000    2.5000    0.0000 Po  0  0  0  0  0 15  0  0  0  0  0  0
    0.0000    1.2500    0.0000 Cl  0  5  0  0  0  0  0  0  0  0  0  0
    2.5000    0.0000    0.0000 Cl  0  5  0  0  0  0  0  0  0  0  0  0
M  CHG  2   2  -1   3  -1
M  END
> <PUBCHEM_COMPOUND_CID>
57417319

> <PUBCHEM_COMPOUND_CANONICALIZED>
1

> <PUBCHEM_CACTVS_COMPLEXITY>
0

> <PUBCHEM_CACTVS_HBOND_ACCEPTOR>
2

> <PUBCHEM_CACTVS_HBOND_DONOR>
0

> <PUBCHEM_CACTVS_ROTATABLE_BOND>
0

> <PUBCHEM_CACTVS_SUBSKEYS>
AAADcQAAAAAGAAAAAAAAAAAAAAAAAAAAAAAAAAAAAAAAAAAAAAAAAAAAAAAAAAAAAAAAAAAAAAAAAAAAAAAAAAAAAAAAAAAAAAAAAAAAAAAAAAAAAAAAAAAAAAAAAAAAAAAAAAAAAAAAAAAAAAAAAAAAAA==

> <PUBCHEM_IUPAC_INCHI>
InChI=1S/2ClH.Po/h2*1H;/p-2

> <PUBCHEM_IUPAC_INCHIKEY>
GKHDTLYUWKFATD-UHFFFAOYSA-L

> <PUBCHEM_EXACT_MASS>
278.92014

> <PUBCHEM_MOLECULAR_FORMULA>
Cl2Po-2

> <PUBCHEM_MOLECULAR_WEIGHT>
279.89

> <PUBCHEM_SMILES>
[Cl-].[Cl-].[Po]

> <PUBCHEM_CONNECTIVITY_SMILES>
[Cl-].[Cl-].[Po]

> <PUBCHEM_CACTVS_TPSA>
0

> <PUBCHEM_MONOISOTOPIC_WEIGHT>
278.92014

> <PUBCHEM_TOTAL_CHARGE>
-2

> <PUBCHEM_HEAVY_ATOM_COUNT>
3

> <PUBCHEM_ATOM_DEF_STEREO_COUNT>
0

> <PUBCHEM_ATOM_UDEF_STEREO_COUNT>
0

> <PUBCHEM_BOND_DEF_STEREO_COUNT>
0

> <PUBCHEM_BOND_UDEF_STEREO_COUNT>
0

> <PUBCHEM_ISOTOPIC_ATOM_COUNT>
0

> <PUBCHEM_COMPONENT_COUNT>
3

> <PUBCHEM_CACTVS_TAUTO_COUNT>
-1

> <PUBCHEM_COORDINATE_TYPE>
1
5
255

$$$$
