10290740
  -OEChem-08152607162D

  4  2  0     0  0  0  0  0  0999 V2000
    4.5981    0.0000    0.0000 K   0  3  0  0  0  0  0  0  0  0  0  0
    2.8660    0.0000    0.0000 N   0  3  0  0  0  0  0  0  0  0  0  0
    2.0000   -0.5000    0.0000 N   0  5  0  0  0  0  0  0  0  0  0  0
    3.7321    0.5000    0.0000 N   0  5  0  0  0  0  0  0  0  0  0  0
  2  3  2  0  0  0  0
  2  4  2  0  0  0  0
M  CHG  4   1   1   2   1   3  -1   4  -1
M  END
> <PUBCHEM_COMPOUND_CID>
10290740

> <PUBCHEM_COMPOUND_CANONICALIZED>
1

> <PUBCHEM_CACTVS_COMPLEXITY>
15.5

> <PUBCHEM_CACTVS_HBOND_ACCEPTOR>
2

> <PUBCHEM_CACTVS_HBOND_DONOR>
0

> <PUBCHEM_CACTVS_ROTATABLE_BOND>
0

> <PUBCHEM_CACTVS_SUBSKEYS>
AAADcQADAAAAQAAAAAAAAAAAAAAAAAAAAAAAAAAAAAAAAAAAAAAAAAAIAAAAAAAAAAAAAAAAAAACAAAAAAAAAAAAAAAAAAAAAAAAAAAAAAAAAAAAAAAAAAAAAAAAAAAAAAAAAAAAAAAAAAAAAAAAAAAAAA==

> <PUBCHEM_IUPAC_OPENEYE_NAME>
potassium azide

> <PUBCHEM_IUPAC_CAS_NAME>
potassium azide

> <PUBCHEM_IUPAC_NAME_MARKUP>
potassium azide

> <PUBCHEM_IUPAC_NAME>
potassium azide

> <PUBCHEM_IUPAC_SYSTEMATIC_NAME>
potassium azide

> <PUBCHEM_IUPAC_TRADITIONAL_NAME>
potassium azide

> <PUBCHEM_IUPAC_INCHI>
InChI=1S/K.N3/c;1-3-2/q+1;-1

> <PUBCHEM_IUPAC_INCHIKEY>
TZLVRPLSVNESQC-UHFFFAOYSA-N

> <PUBCHEM_EXACT_MASS>
80.97292850

> <PUBCHEM_MOLECULAR_FORMULA>
KN3

> <PUBCHEM_MOLECULAR_WEIGHT>
81.119

> <PUBCHEM_SMILES>
[N-]=[N+]=[N-].[K+]

> <PUBCHEM_CONNECTIVITY_SMILES>
[N-]=[N+]=[N-].[K+]

> <PUBCHEM_CACTVS_TPSA>
3

> <PUBCHEM_MONOISOTOPIC_WEIGHT>
80.97292850

> <PUBCHEM_TOTAL_CHARGE>
0

> <PUBCHEM_HEAVY_ATOM_COUNT>
4

> <PUBCHEM_ATOM_DEF_STEREO_COUNT>
0

> <PUBCHEM_ATOM_UDEF_STEREO_COUNT>
0

> <PUBCHEM_BOND_DEF_STEREO_COUNT>
0

> <PUBCHEM_BOND_UDEF_STEREO_COUNT>
0

> <PUBCHEM_ISOTOPIC_ATOM_COUNT>
0

> <PUBCHEM_COMPONENT_COUNT>
2

> <PUBCHEM_CACTVS_TAUTO_COUNT>
-1

> <PUBCHEM_COORDINATE_TYPE>
1
5
255

$$$$
