45052161
  -OEChem-08152604542D

  6  3  0     0  0  0  0  0  0999 V2000
    3.7320    0.2500    0.0000 Ti  0  0  0  0  0  0  0  0  0  0  0  0
    5.4641    0.2500    0.0000 K   0  3  0  0  0  0  0  0  0  0  0  0
    2.0000    0.2500    0.0000 K   0  3  0  0  0  0  0  0  0  0  0  0
    4.5981    0.7500    0.0000 O   0  5  0  0  0  0  0  0  0  0  0  0
    2.8660    0.7500    0.0000 O   0  5  0  0  0  0  0  0  0  0  0  0
    3.7320   -0.7500    0.0000 O   0  0  0  0  0  0  0  0  0  0  0  0
  1  4  1  0  0  0  0
  1  5  1  0  0  0  0
  1  6  2  0  0  0  0
M  CHG  4   2   1   3   1   4  -1   5  -1
M  END
> <PUBCHEM_COMPOUND_CID>
45052161

> <PUBCHEM_COMPOUND_CANONICALIZED>
1

> <PUBCHEM_CACTVS_COMPLEXITY>
18.8

> <PUBCHEM_CACTVS_HBOND_ACCEPTOR>
3

> <PUBCHEM_CACTVS_HBOND_DONOR>
0

> <PUBCHEM_CACTVS_ROTATABLE_BOND>
0

> <PUBCHEM_CACTVS_SUBSKEYS>
AAADcQAAMAAAYAIAAAAAAAAAAAAAAAAAAAAAAAAAAAAAAAAAAAAAAAAAAAAAAAAAAAAAAAAAAAAAAAAAAAAAAAAAAAAAAAAAAAAAAAAAAAAAAAAAAAAAAAAAAAAAAAAAAAAAAAAAAAAAAAAAAAAAAAAAAA==

> <PUBCHEM_IUPAC_OPENEYE_NAME>
dipotassium;dioxido(oxo)titanium

> <PUBCHEM_IUPAC_CAS_NAME>
dipotassium;dioxido(oxo)titanium

> <PUBCHEM_IUPAC_NAME_MARKUP>
dipotassium;dioxido(oxo)titanium

> <PUBCHEM_IUPAC_NAME>
dipotassium;dioxido(oxo)titanium

> <PUBCHEM_IUPAC_SYSTEMATIC_NAME>
dipotassium;bis(oxidanidyl)-oxidanylidene-titanium

> <PUBCHEM_IUPAC_TRADITIONAL_NAME>
dipotassium;keto(dioxido)titanium

> <PUBCHEM_IUPAC_INCHI>
InChI=1S/2K.3O.Ti/q2*+1;;2*-1;

> <PUBCHEM_IUPAC_INCHIKEY>
NJLLQSBAHIKGKF-UHFFFAOYSA-N

> <PUBCHEM_EXACT_MASS>
173.8600975

> <PUBCHEM_MOLECULAR_FORMULA>
K2O3Ti

> <PUBCHEM_MOLECULAR_WEIGHT>
174.062

> <PUBCHEM_SMILES>
[O-][Ti](=O)[O-].[K+].[K+]

> <PUBCHEM_CONNECTIVITY_SMILES>
[O-][Ti](=O)[O-].[K+].[K+]

> <PUBCHEM_CACTVS_TPSA>
63.2

> <PUBCHEM_MONOISOTOPIC_WEIGHT>
173.8600975

> <PUBCHEM_TOTAL_CHARGE>
0

> <PUBCHEM_HEAVY_ATOM_COUNT>
6

> <PUBCHEM_ATOM_DEF_STEREO_COUNT>
0

> <PUBCHEM_ATOM_UDEF_STEREO_COUNT>
0

> <PUBCHEM_BOND_DEF_STEREO_COUNT>
0

> <PUBCHEM_BOND_UDEF_STEREO_COUNT>
0

> <PUBCHEM_ISOTOPIC_ATOM_COUNT>
0

> <PUBCHEM_COMPONENT_COUNT>
3

> <PUBCHEM_CACTVS_TAUTO_COUNT>
-1

> <PUBCHEM_COORDINATE_TYPE>
1
5
255

$$$$
