23677934
  -OEChem-08152604272D

  6  4  0     1  0  0  0  0  0999 V2000
    3.4030    0.2500    0.0000 Se  0  0  3  0  0  0  0  0  0  0  0  0
    5.1350    0.2500    0.0000 K   0  3  0  0  0  0  0  0  0  0  0  0
    4.2690    0.7500    0.0000 O   0  5  0  0  0  0  0  0  0  0  0  0
    2.5369    0.7500    0.0000 O   0  0  0  0  0  0  0  0  0  0  0  0
    3.4030   -0.7500    0.0000 O   0  0  0  0  0  0  0  0  0  0  0  0
    2.0000    0.4400    0.0000 H   0  0  0  0  0  0  0  0  0  0  0  0
  1  3  1  0  0  0  0
  1  4  1  0  0  0  0
  1  5  2  0  0  0  0
  4  6  1  0  0  0  0
M  CHG  2   2   1   3  -1
M  END
> <PUBCHEM_COMPOUND_CID>
23677934

> <PUBCHEM_COMPOUND_CANONICALIZED>
1

> <PUBCHEM_CACTVS_COMPLEXITY>
33.9

> <PUBCHEM_CACTVS_HBOND_ACCEPTOR>
3

> <PUBCHEM_CACTVS_HBOND_DONOR>
1

> <PUBCHEM_CACTVS_ROTATABLE_BOND>
0

> <PUBCHEM_CACTVS_SUBSKEYS>
AAADcQAAMAAAQAAAIAAAAAAAAAAAAAAAAAAAAAAAAAAAAAAAAAAAAAAACAAAAAAAAAAAAAAAAAAAAAAAAAAAAAAAAAAAAAAAAAAAAAAAAAAAAAAAAAAAAAAAAAAAAAAAAAAAAAAAAAAAAAAAAAAAAAAAAA==

> <PUBCHEM_IUPAC_OPENEYE_NAME>
potassium hydrogen selenite

> <PUBCHEM_IUPAC_CAS_NAME>
potassium hydrogen selenite

> <PUBCHEM_IUPAC_NAME_MARKUP>
potassium hydrogen selenite

> <PUBCHEM_IUPAC_NAME>
potassium hydrogen selenite

> <PUBCHEM_IUPAC_SYSTEMATIC_NAME>
potassium hydrogen selenite

> <PUBCHEM_IUPAC_TRADITIONAL_NAME>
potassium hydrogen selenite

> <PUBCHEM_IUPAC_INCHI>
InChI=1S/K.H2O3Se/c;1-4(2)3/h;(H2,1,2,3)/q+1;/p-1

> <PUBCHEM_IUPAC_INCHIKEY>
CRQUBUILMSLSHI-UHFFFAOYSA-M

> <PUBCHEM_EXACT_MASS>
167.87280

> <PUBCHEM_MOLECULAR_FORMULA>
HKO3Se

> <PUBCHEM_MOLECULAR_WEIGHT>
167.08

> <PUBCHEM_SMILES>
O[Se](=O)[O-].[K+]

> <PUBCHEM_CONNECTIVITY_SMILES>
O[Se](=O)[O-].[K+]

> <PUBCHEM_CACTVS_TPSA>
60.4

> <PUBCHEM_MONOISOTOPIC_WEIGHT>
167.87280

> <PUBCHEM_TOTAL_CHARGE>
0

> <PUBCHEM_HEAVY_ATOM_COUNT>
5

> <PUBCHEM_ATOM_DEF_STEREO_COUNT>
0

> <PUBCHEM_ATOM_UDEF_STEREO_COUNT>
0

> <PUBCHEM_BOND_DEF_STEREO_COUNT>
0

> <PUBCHEM_BOND_UDEF_STEREO_COUNT>
0

> <PUBCHEM_ISOTOPIC_ATOM_COUNT>
0

> <PUBCHEM_COMPONENT_COUNT>
2

> <PUBCHEM_CACTVS_TAUTO_COUNT>
-1

> <PUBCHEM_NONSTANDARDBOND>
2  3  7

> <PUBCHEM_COORDINATE_TYPE>
1
5
255

$$$$
