82127
  -OEChem-08152605542D

  2  0  0     0  0  0  0  0  0999 V2000
    3.0000    0.0000    0.0000 K   0  3  0  0  0  0  0  0  0  0  0  0
    2.0000    0.0000    0.0000 H   0  5  0  0  0  0  0  0  0  0  0  0
M  CHG  2   1   1   2  -1
M  END
> <PUBCHEM_COMPOUND_CID>
82127

> <PUBCHEM_COMPOUND_CANONICALIZED>
1

> <PUBCHEM_CACTVS_COMPLEXITY>
0

> <PUBCHEM_CACTVS_HBOND_ACCEPTOR>
1

> <PUBCHEM_CACTVS_HBOND_DONOR>
0

> <PUBCHEM_CACTVS_ROTATABLE_BOND>
0

> <PUBCHEM_CACTVS_SUBSKEYS>
AAADcQAAAAAAQAAAAAAAAAAAAAAAAAAAAAAAAAAAAAAAAAAAAAAAAAAAAAAAAAAAAAAAAAAAAAAAAAAAAAAAAAAAAAAAAAAAAAAAAAAAAAAAAAAAAAAAAAAAAAAAAAAAAAAAAAAAAAAAAAAAAAAAAAAAAA==

> <PUBCHEM_IUPAC_OPENEYE_NAME>
potassium hydride

> <PUBCHEM_IUPAC_CAS_NAME>
potassium hydride

> <PUBCHEM_IUPAC_NAME_MARKUP>
potassium hydride

> <PUBCHEM_IUPAC_NAME>
potassium hydride

> <PUBCHEM_IUPAC_SYSTEMATIC_NAME>
potassium hydride

> <PUBCHEM_IUPAC_TRADITIONAL_NAME>
potassium hydride

> <PUBCHEM_IUPAC_INCHI>
InChI=1S/K.H/q+1;-1

> <PUBCHEM_IUPAC_INCHIKEY>
OCFVSFVLVRNXFJ-UHFFFAOYSA-N

> <PUBCHEM_EXACT_MASS>
39.97153152

> <PUBCHEM_MOLECULAR_FORMULA>
HK

> <PUBCHEM_MOLECULAR_WEIGHT>
40.1063

> <PUBCHEM_SMILES>
[H-].[K+]

> <PUBCHEM_CONNECTIVITY_SMILES>
[H-].[K+]

> <PUBCHEM_CACTVS_TPSA>
0

> <PUBCHEM_MONOISOTOPIC_WEIGHT>
39.97153152

> <PUBCHEM_TOTAL_CHARGE>
0

> <PUBCHEM_HEAVY_ATOM_COUNT>
1

> <PUBCHEM_ATOM_DEF_STEREO_COUNT>
0

> <PUBCHEM_ATOM_UDEF_STEREO_COUNT>
0

> <PUBCHEM_BOND_DEF_STEREO_COUNT>
0

> <PUBCHEM_BOND_UDEF_STEREO_COUNT>
0

> <PUBCHEM_ISOTOPIC_ATOM_COUNT>
0

> <PUBCHEM_COMPONENT_COUNT>
2

> <PUBCHEM_CACTVS_TAUTO_COUNT>
-1

> <PUBCHEM_NONSTANDARDBOND>
1  2  7

> <PUBCHEM_COORDINATE_TYPE>
1
5
255

$$$$
