24967
  -OEChem-08152605342D

  5  3  0     0  0  0  0  0  0999 V2000
    2.8660    0.2500    0.0000 As  0  0  0  0  0  0  0  0  0  0  0  0
    4.5981    0.2500    0.0000 K   0  3  0  0  0  0  0  0  0  0  0  0
    3.7320    0.7500    0.0000 O   0  5  0  0  0  0  0  0  0  0  0  0
    2.0000    0.7500    0.0000 O   0  5  0  0  0  0  0  0  0  0  0  0
    2.8660   -0.7500    0.0000 O   0  5  0  0  0  0  0  0  0  0  0  0
  1  3  1  0  0  0  0
  1  4  1  0  0  0  0
  1  5  1  0  0  0  0
M  CHG  4   2   1   3  -1   4  -1   5  -1
M  END
> <PUBCHEM_COMPOUND_CID>
24967

> <PUBCHEM_COMPOUND_CANONICALIZED>
1

> <PUBCHEM_CACTVS_COMPLEXITY>
8

> <PUBCHEM_CACTVS_HBOND_ACCEPTOR>
3

> <PUBCHEM_CACTVS_HBOND_DONOR>
0

> <PUBCHEM_CACTVS_ROTATABLE_BOND>
0

> <PUBCHEM_CACTVS_SUBSKEYS>
AAADcQAAMAAAQAAAQAAAAAAAAAAAAAAAAAAAAAAAAAAAAAAAAAAAAAAAAAAAAAAAAAAAAAAAAAAAAAAAAAAAAAAAAAAAAAAAAAAAAAAAAAAAAAAAAAAAAAAAAAAAAAAAAAAAAAAAAAAAAAAAAAAAAAAAAA==

> <PUBCHEM_IUPAC_OPENEYE_NAME>
potassium arsorite

> <PUBCHEM_IUPAC_CAS_NAME>
potassium arsorite

> <PUBCHEM_IUPAC_NAME_MARKUP>
potassium arsorite

> <PUBCHEM_IUPAC_NAME>
potassium arsorite

> <PUBCHEM_IUPAC_SYSTEMATIC_NAME>
potassium arsorite

> <PUBCHEM_IUPAC_TRADITIONAL_NAME>
potassium arsorite

> <PUBCHEM_IUPAC_INCHI>
InChI=1S/AsO3.K/c2-1(3)4;/q-3;+1

> <PUBCHEM_IUPAC_INCHIKEY>
GLGWONYXPKJPGO-UHFFFAOYSA-N

> <PUBCHEM_EXACT_MASS>
161.870045

> <PUBCHEM_MOLECULAR_FORMULA>
AsKO3-2

> <PUBCHEM_MOLECULAR_WEIGHT>
162.018

> <PUBCHEM_SMILES>
[O-][As]([O-])[O-].[K+]

> <PUBCHEM_CONNECTIVITY_SMILES>
[O-][As]([O-])[O-].[K+]

> <PUBCHEM_CACTVS_TPSA>
69.2

> <PUBCHEM_MONOISOTOPIC_WEIGHT>
161.870045

> <PUBCHEM_TOTAL_CHARGE>
-2

> <PUBCHEM_HEAVY_ATOM_COUNT>
5

> <PUBCHEM_ATOM_DEF_STEREO_COUNT>
0

> <PUBCHEM_ATOM_UDEF_STEREO_COUNT>
0

> <PUBCHEM_BOND_DEF_STEREO_COUNT>
0

> <PUBCHEM_BOND_UDEF_STEREO_COUNT>
0

> <PUBCHEM_ISOTOPIC_ATOM_COUNT>
0

> <PUBCHEM_COMPONENT_COUNT>
2

> <PUBCHEM_CACTVS_TAUTO_COUNT>
-1

> <PUBCHEM_COORDINATE_TYPE>
1
5
255

$$$$
