71311337
  -OEChem-08152605502D

 14 10  0     0  0  0  0  0  0999 V2000
    0.8660    1.0000    0.0000 Pt  0  5  0  0  0  0  0  0  0  0  0  0
    4.0190    0.7869    0.0000 K   0  3  0  0  0  0  0  0  0  0  0  0
    1.7320    1.5000    0.0000 Cl  0  0  0  0  0  0  0  0  0  0  0  0
    0.0000    1.5000    0.0000 Cl  0  0  0  0  0  0  0  0  0  0  0  0
    0.8660    0.0000    0.0000 Cl  0  0  0  0  0  0  0  0  0  0  0  0
    4.2690    3.2869    0.0000 O   0  0  0  0  0  0  0  0  0  0  0  0
    0.3660    4.0369    0.0000 C   0  0  0  0  0  0  0  0  0  0  0  0
    1.3660    4.0369    0.0000 C   0  0  0  0  0  0  0  0  0  0  0  0
    0.0560    4.5739    0.0000 H   0  0  0  0  0  0  0  0  0  0  0  0
    0.0560    3.5000    0.0000 H   0  0  0  0  0  0  0  0  0  0  0  0
    1.6760    3.5000    0.0000 H   0  0  0  0  0  0  0  0  0  0  0  0
    1.6760    4.5739    0.0000 H   0  0  0  0  0  0  0  0  0  0  0  0
    4.8059    3.5969    0.0000 H   0  0  0  0  0  0  0  0  0  0  0  0
    3.7320    3.5969    0.0000 H   0  0  0  0  0  0  0  0  0  0  0  0
  1  3  1  0  0  0  0
  1  4  1  0  0  0  0
  1  5  1  0  0  0  0
  6 13  1  0  0  0  0
  6 14  1  0  0  0  0
  7  8  2  0  0  0  0
  7  9  1  0  0  0  0
  7 10  1  0  0  0  0
  8 11  1  0  0  0  0
  8 12  1  0  0  0  0
M  CHG  2   1  -1   2   1
M  END
> <PUBCHEM_COMPOUND_CID>
71311337

> <PUBCHEM_COMPOUND_CANONICALIZED>
1

> <PUBCHEM_CACTVS_COMPLEXITY>
8

> <PUBCHEM_CACTVS_HBOND_ACCEPTOR>
2

> <PUBCHEM_CACTVS_HBOND_DONOR>
1

> <PUBCHEM_CACTVS_ROTATABLE_BOND>
0

> <PUBCHEM_CACTVS_SUBSKEYS>
AAADcYBAIAAGQAAAAAAABAAAAAAAAAAAAAAAAAAAAAAAAAAAAAAAGAAACAAAAACAAAAAAAAAAACAAAACAAAAAAAAAAAIAAAAAAAAAAAAAAAAAAAAAAAAAAAAAAAAAAAAAAAAAAAAAAAAAAAAAAAAAAAAAA==

> <PUBCHEM_IUPAC_OPENEYE_NAME>
potassium;ethylene;trichloroplatinum(1-);hydrate

> <PUBCHEM_IUPAC_CAS_NAME>
potassium;ethene;trichloroplatinum(1-);hydrate

> <PUBCHEM_IUPAC_NAME_MARKUP>
potassium;ethene;trichloroplatinum(1-);hydrate

> <PUBCHEM_IUPAC_NAME>
potassium;ethene;trichloroplatinum(1-);hydrate

> <PUBCHEM_IUPAC_SYSTEMATIC_NAME>
potassium;ethene;tris(chloranyl)platinum(1-);hydrate

> <PUBCHEM_IUPAC_TRADITIONAL_NAME>
potassium;ethylene;trichloroplatinum(1-);hydrate

> <PUBCHEM_IUPAC_INCHI>
InChI=1S/C2H4.3ClH.K.H2O.Pt/c1-2;;;;;;/h1-2H2;3*1H;;1H2;/q;;;;+1;;+2/p-3

> <PUBCHEM_IUPAC_INCHIKEY>
DCEGWIMEFFONKJ-UHFFFAOYSA-K

> <PUBCHEM_EXACT_MASS>
384.876924

> <PUBCHEM_MOLECULAR_FORMULA>
C2H6Cl3KOPt

> <PUBCHEM_MOLECULAR_WEIGHT>
386.6

> <PUBCHEM_SMILES>
C=C.O.Cl[Pt-](Cl)Cl.[K+]

> <PUBCHEM_CONNECTIVITY_SMILES>
C=C.O.Cl[Pt-](Cl)Cl.[K+]

> <PUBCHEM_CACTVS_TPSA>
1

> <PUBCHEM_MONOISOTOPIC_WEIGHT>
384.876924

> <PUBCHEM_TOTAL_CHARGE>
0

> <PUBCHEM_HEAVY_ATOM_COUNT>
8

> <PUBCHEM_ATOM_DEF_STEREO_COUNT>
0

> <PUBCHEM_ATOM_UDEF_STEREO_COUNT>
0

> <PUBCHEM_BOND_DEF_STEREO_COUNT>
0

> <PUBCHEM_BOND_UDEF_STEREO_COUNT>
0

> <PUBCHEM_ISOTOPIC_ATOM_COUNT>
0

> <PUBCHEM_COMPONENT_COUNT>
4

> <PUBCHEM_CACTVS_TAUTO_COUNT>
-1

> <PUBCHEM_COORDINATE_TYPE>
1
5
255

$$$$
