518872
  -OEChem-08152607402D

  6  4  0     0  0  0  0  0  0999 V2000
    3.8606    0.4677    0.0000 K   0  3  0  0  0  0  0  0  0  0  0  0
    2.0000    0.0722    0.0000 F   0  0  0  0  0  0  0  0  0  0  0  0
    2.5878   -0.9458    0.0000 F   0  0  0  0  0  0  0  0  0  0  0  0
    2.7866    0.9458    0.0000 F   0  0  0  0  0  0  0  0  0  0  0  0
    3.7377   -0.7014    0.0000 F   0  0  0  0  0  0  0  0  0  0  0  0
    2.9945   -0.0323    0.0000 B   0  5  0  0  0  0  0  0  0  0  0  0
  2  6  1  0  0  0  0
  3  6  1  0  0  0  0
  4  6  1  0  0  0  0
  5  6  1  0  0  0  0
M  CHG  2   1   1   6  -1
M  END
> <PUBCHEM_COMPOUND_CID>
518872

> <PUBCHEM_COMPOUND_CANONICALIZED>
1

> <PUBCHEM_CACTVS_COMPLEXITY>
23

> <PUBCHEM_CACTVS_HBOND_ACCEPTOR>
5

> <PUBCHEM_CACTVS_HBOND_DONOR>
0

> <PUBCHEM_CACTVS_ROTATABLE_BOND>
0

> <PUBCHEM_CACTVS_SUBSKEYS>
AAADcQIAAcAAQAAAAAAAAAAAAAAAAAAAAAAAAAAAAAAAAAAAAAAEAAAAAAAAAAAAAAAAAAAAAAAAAAAAAAAAAAAAAAAAAAAAAAAAAAAAAAAAAAAAAAAAAAAAAAAAAAAAAAAAAAAAAAAAAAAAAAAAAAAAAA==

> <PUBCHEM_IUPAC_OPENEYE_NAME>
potassium tetrafluoroborate

> <PUBCHEM_IUPAC_CAS_NAME>
potassium tetrafluoroborate

> <PUBCHEM_IUPAC_NAME_MARKUP>
potassium tetrafluoroborate

> <PUBCHEM_IUPAC_NAME>
potassium tetrafluoroborate

> <PUBCHEM_IUPAC_SYSTEMATIC_NAME>
potassium tetrafluoroborate

> <PUBCHEM_IUPAC_TRADITIONAL_NAME>
potassium tetrafluoroborate

> <PUBCHEM_IUPAC_INCHI>
InChI=1S/BF4.K/c2-1(3,4)5;/q-1;+1

> <PUBCHEM_IUPAC_INCHIKEY>
AKEBROIVCDHVSD-UHFFFAOYSA-N

> <PUBCHEM_EXACT_MASS>
125.9666243

> <PUBCHEM_MOLECULAR_FORMULA>
BF4K

> <PUBCHEM_MOLECULAR_WEIGHT>
125.91

> <PUBCHEM_SMILES>
[B-](F)(F)(F)F.[K+]

> <PUBCHEM_CONNECTIVITY_SMILES>
[B-](F)(F)(F)F.[K+]

> <PUBCHEM_CACTVS_TPSA>
0

> <PUBCHEM_MONOISOTOPIC_WEIGHT>
125.9666243

> <PUBCHEM_TOTAL_CHARGE>
0

> <PUBCHEM_HEAVY_ATOM_COUNT>
6

> <PUBCHEM_ATOM_DEF_STEREO_COUNT>
0

> <PUBCHEM_ATOM_UDEF_STEREO_COUNT>
0

> <PUBCHEM_BOND_DEF_STEREO_COUNT>
0

> <PUBCHEM_BOND_UDEF_STEREO_COUNT>
0

> <PUBCHEM_ISOTOPIC_ATOM_COUNT>
0

> <PUBCHEM_COMPONENT_COUNT>
2

> <PUBCHEM_CACTVS_TAUTO_COUNT>
-1

> <PUBCHEM_NONSTANDARDBOND>
1  6  7

> <PUBCHEM_COORDINATE_TYPE>
1
5
255

$$$$
