10219387
  -OEChem-08152604442D

  4  0  0     0  0  0  0  0  0999 V2000
    2.0000   -0.2500    0.0000 K   0  3  0  0  0  0  0  0  0  0  0  0
    3.7321   -0.2500    0.0000 Al  0  1  0  0  0  0  0  0  0  0  0  0
    2.8660    0.2500    0.0000 O   0  6  0  0  0  0  0  0  0  0  0  0
    4.5981    0.2500    0.0000 O   0  6  0  0  0  0  0  0  0  0  0  0
M  CHG  4   1   1   2   3   3  -2   4  -2
M  END
> <PUBCHEM_COMPOUND_CID>
10219387

> <PUBCHEM_COMPOUND_CANONICALIZED>
1

> <PUBCHEM_CACTVS_COMPLEXITY>
0

> <PUBCHEM_CACTVS_HBOND_ACCEPTOR>
2

> <PUBCHEM_CACTVS_HBOND_DONOR>
0

> <PUBCHEM_CACTVS_ROTATABLE_BOND>
0

> <PUBCHEM_CACTVS_SUBSKEYS>
AAADcQAAMAAAQBAAAAAAAAAAAAAAAAAAAAAAAAAAAAAAAAAAAAAAAAAAAAAAAAAAAAAAAAAAAAAAAAAAAAAAAAAAAAAAAAAAAAAAAAAAAAAAAAAAAAAAAAAAAAAAAAAAAAAAAAAAAAAAAAAAAAAAAAAAAA==

> <PUBCHEM_IUPAC_OPENEYE_NAME>
aluminum;potassium;bis(oxygen(2-))

> <PUBCHEM_IUPAC_CAS_NAME>
aluminum;potassium;bis(oxygen(2-))

> <PUBCHEM_IUPAC_NAME_MARKUP>
aluminum;potassium;bis(oxygen(2-))

> <PUBCHEM_IUPAC_NAME>
aluminum;potassium;bis(oxygen(2-))

> <PUBCHEM_IUPAC_SYSTEMATIC_NAME>
aluminum;potassium;bis(oxygen(2-))

> <PUBCHEM_IUPAC_TRADITIONAL_NAME>
aluminum;potassium;bis(oxygen(2-))

> <PUBCHEM_IUPAC_INCHI>
InChI=1S/Al.K.2O/q+3;+1;2*-2

> <PUBCHEM_IUPAC_INCHIKEY>
WPUINVXKIPAAHK-UHFFFAOYSA-N

> <PUBCHEM_EXACT_MASS>
97.9350741

> <PUBCHEM_MOLECULAR_FORMULA>
AlKO2

> <PUBCHEM_MOLECULAR_WEIGHT>
98.079

> <PUBCHEM_SMILES>
[O-2].[O-2].[Al+3].[K+]

> <PUBCHEM_CONNECTIVITY_SMILES>
[O-2].[O-2].[Al+3].[K+]

> <PUBCHEM_CACTVS_TPSA>
2

> <PUBCHEM_MONOISOTOPIC_WEIGHT>
97.9350741

> <PUBCHEM_TOTAL_CHARGE>
0

> <PUBCHEM_HEAVY_ATOM_COUNT>
4

> <PUBCHEM_ATOM_DEF_STEREO_COUNT>
0

> <PUBCHEM_ATOM_UDEF_STEREO_COUNT>
0

> <PUBCHEM_BOND_DEF_STEREO_COUNT>
0

> <PUBCHEM_BOND_UDEF_STEREO_COUNT>
0

> <PUBCHEM_ISOTOPIC_ATOM_COUNT>
0

> <PUBCHEM_COMPONENT_COUNT>
4

> <PUBCHEM_CACTVS_TAUTO_COUNT>
-1

> <PUBCHEM_COORDINATE_TYPE>
1
5
255

$$$$
