61438
  -OEChem-08152605172D

  7  4  0     0  0  0  0  0  0999 V2000
    3.2071    0.7071    0.0000 Pd  0  6  0  0  0  0  0  0  0  0  0  0
    0.0000    1.7071    0.0000 K   0  3  0  0  0  0  0  0  0  0  0  0
    2.9571    3.4142    0.0000 K   0  3  0  0  0  0  0  0  0  0  0  0
    3.9142    0.0000    0.0000 Cl  0  0  0  0  0  0  0  0  0  0  0  0
    2.5000    0.0000    0.0000 Cl  0  0  0  0  0  0  0  0  0  0  0  0
    3.9142    1.4142    0.0000 Cl  0  0  0  0  0  0  0  0  0  0  0  0
    2.5000    1.4142    0.0000 Cl  0  0  0  0  0  0  0  0  0  0  0  0
  1  4  1  1  0  0  0
  1  5  1  1  0  0  0
  1  6  1  6  0  0  0
  1  7  1  6  0  0  0
M  CHG  3   1  -2   2   1   3   1
M  END
> <PUBCHEM_COMPOUND_CID>
61438

> <PUBCHEM_COMPOUND_CANONICALIZED>
1

> <PUBCHEM_CACTVS_COMPLEXITY>
19.1

> <PUBCHEM_CACTVS_HBOND_ACCEPTOR>
1

> <PUBCHEM_CACTVS_HBOND_DONOR>
0

> <PUBCHEM_CACTVS_ROTATABLE_BOND>
0

> <PUBCHEM_CACTVS_SUBSKEYS>
AAADcQAAAAAHYAAAAAgAAAAAAAAAAAAAAAAAAAAAAAAAAAAAAAAAAAAAAAAAAAAAAAAAAAAAAAAAAAAAAAAAAAAAAAAAAAAAAAAAAAAAAAAAAAAAAAAAAAAAAAAAAAAAAAAAAAAAAAAAAAAAAAAAAAAAAA==

> <PUBCHEM_IUPAC_OPENEYE_NAME>
dipotassium;tetrachloropalladium(2-)

> <PUBCHEM_IUPAC_CAS_NAME>
dipotassium;tetrachloropalladium(2-)

> <PUBCHEM_IUPAC_NAME_MARKUP>
dipotassium;tetrachloropalladium(2-)

> <PUBCHEM_IUPAC_NAME>
dipotassium;tetrachloropalladium(2-)

> <PUBCHEM_IUPAC_SYSTEMATIC_NAME>
dipotassium;tetrakis(chloranyl)palladium(2-)

> <PUBCHEM_IUPAC_TRADITIONAL_NAME>
dipotassium;tetrachloropalladium(2-)

> <PUBCHEM_IUPAC_INCHI>
InChI=1S/4ClH.2K.Pd/h4*1H;;;/q;;;;2*+1;+2/p-4

> <PUBCHEM_IUPAC_INCHIKEY>
LGCKLDWLSVFMGL-UHFFFAOYSA-J

> <PUBCHEM_EXACT_MASS>
325.70335

> <PUBCHEM_MOLECULAR_FORMULA>
Cl4K2Pd

> <PUBCHEM_MOLECULAR_WEIGHT>
326.4

> <PUBCHEM_SMILES>
Cl[Pd-2](Cl)(Cl)Cl.[K+].[K+]

> <PUBCHEM_CONNECTIVITY_SMILES>
Cl[Pd-2](Cl)(Cl)Cl.[K+].[K+]

> <PUBCHEM_CACTVS_TPSA>
0

> <PUBCHEM_MONOISOTOPIC_WEIGHT>
323.70630

> <PUBCHEM_TOTAL_CHARGE>
0

> <PUBCHEM_HEAVY_ATOM_COUNT>
7

> <PUBCHEM_ATOM_DEF_STEREO_COUNT>
0

> <PUBCHEM_ATOM_UDEF_STEREO_COUNT>
0

> <PUBCHEM_BOND_DEF_STEREO_COUNT>
0

> <PUBCHEM_BOND_UDEF_STEREO_COUNT>
0

> <PUBCHEM_ISOTOPIC_ATOM_COUNT>
0

> <PUBCHEM_COMPONENT_COUNT>
3

> <PUBCHEM_CACTVS_TAUTO_COUNT>
-1

> <PUBCHEM_COORDINATE_TYPE>
1
5
255

> <PUBCHEM_BONDANNOTATIONS>
1  4  5
1  5  5
1  6  6
1  7  6

$$$$
