11337898
  -OEChem-08152607132D

  6  4  0     0  0  0  0  0  0999 V2000
    0.7071    0.7071    0.0000 Au  0  5  0  0  0  0  0  0  0  0  0  0
    0.4571    3.4142    0.0000 K   0  3  0  0  0  0  0  0  0  0  0  0
    1.4142    0.0000    0.0000 Cl  0  0  0  0  0  0  0  0  0  0  0  0
    0.0000    0.0000    0.0000 Cl  0  0  0  0  0  0  0  0  0  0  0  0
    1.4142    1.4142    0.0000 Cl  0  0  0  0  0  0  0  0  0  0  0  0
    0.0000    1.4142    0.0000 Cl  0  0  0  0  0  0  0  0  0  0  0  0
  1  3  1  1  0  0  0
  1  4  1  1  0  0  0
  1  5  1  6  0  0  0
  1  6  1  6  0  0  0
M  CHG  2   1  -1   2   1
M  END
> <PUBCHEM_COMPOUND_CID>
11337898

> <PUBCHEM_COMPOUND_CANONICALIZED>
1

> <PUBCHEM_CACTVS_COMPLEXITY>
19.1

> <PUBCHEM_CACTVS_HBOND_ACCEPTOR>
1

> <PUBCHEM_CACTVS_HBOND_DONOR>
0

> <PUBCHEM_CACTVS_ROTATABLE_BOND>
0

> <PUBCHEM_CACTVS_SUBSKEYS>
AAADcQAAAAAHQAAAAAAAAgAAAAAAAAAAAAAAAAAAAAAAAAAAAAAAAAAAAAAAAAAAAAAAAAAAAAAAAAAAAAAAAAAAAAAAAAAAAAAAAAAAAAAAAAAAAAAAAAAAAAAAAAAAAAAAAAAAAAAAAAAAAAAAAAAAAA==

> <PUBCHEM_IUPAC_OPENEYE_NAME>
potassium tetrachlorogold(1-)

> <PUBCHEM_IUPAC_CAS_NAME>
potassium tetrachlorogold(1-)

> <PUBCHEM_IUPAC_NAME_MARKUP>
potassium tetrachlorogold(1-)

> <PUBCHEM_IUPAC_NAME>
potassium tetrachlorogold(1-)

> <PUBCHEM_IUPAC_SYSTEMATIC_NAME>
potassium tetrakis(chloranyl)gold(1-)

> <PUBCHEM_IUPAC_TRADITIONAL_NAME>
potassium tetrachlorogold(1-)

> <PUBCHEM_IUPAC_INCHI>
InChI=1S/Au.4ClH.K/h;4*1H;/q+3;;;;;+1/p-4

> <PUBCHEM_IUPAC_INCHIKEY>
JMONCQYBAMKVQQ-UHFFFAOYSA-J

> <PUBCHEM_EXACT_MASS>
377.802737

> <PUBCHEM_MOLECULAR_FORMULA>
AuCl4K

> <PUBCHEM_MOLECULAR_WEIGHT>
377.9

> <PUBCHEM_SMILES>
Cl[Au-](Cl)(Cl)Cl.[K+]

> <PUBCHEM_CONNECTIVITY_SMILES>
Cl[Au-](Cl)(Cl)Cl.[K+]

> <PUBCHEM_CACTVS_TPSA>
0

> <PUBCHEM_MONOISOTOPIC_WEIGHT>
375.805687

> <PUBCHEM_TOTAL_CHARGE>
0

> <PUBCHEM_HEAVY_ATOM_COUNT>
6

> <PUBCHEM_ATOM_DEF_STEREO_COUNT>
0

> <PUBCHEM_ATOM_UDEF_STEREO_COUNT>
0

> <PUBCHEM_BOND_DEF_STEREO_COUNT>
0

> <PUBCHEM_BOND_UDEF_STEREO_COUNT>
0

> <PUBCHEM_ISOTOPIC_ATOM_COUNT>
0

> <PUBCHEM_COMPONENT_COUNT>
2

> <PUBCHEM_CACTVS_TAUTO_COUNT>
-1

> <PUBCHEM_COORDINATE_TYPE>
1
5
255

> <PUBCHEM_BONDANNOTATIONS>
1  3  5
1  4  5
1  5  6
1  6  6

$$$$
