61856
  -OEChem-08152606172D

  9  6  0     0  0  0  0  0  0999 V2000
    3.3660    1.0000    0.0000 Pt  0  6  0  0  0  0  0  0  0  0  0  0
    0.0000    2.0000    0.0000 K   0  3  0  0  0  0  0  0  0  0  0  0
    3.1160    4.0000    0.0000 K   0  3  0  0  0  0  0  0  0  0  0  0
    4.2321    1.5000    0.0000 Cl  0  0  0  0  0  0  0  0  0  0  0  0
    2.5000    0.5000    0.0000 Cl  0  0  0  0  0  0  0  0  0  0  0  0
    2.5000    1.5000    0.0000 Cl  0  0  0  0  0  0  0  0  0  0  0  0
    3.3660    0.0000    0.0000 Cl  0  0  0  0  0  0  0  0  0  0  0  0
    3.3660    2.0000    0.0000 Cl  0  0  0  0  0  0  0  0  0  0  0  0
    4.2321    0.5000    0.0000 Cl  0  0  0  0  0  0  0  0  0  0  0  0
  1  4  1  0  0  0  0
  1  5  1  0  0  0  0
  1  6  1  0  0  0  0
  1  7  1  0  0  0  0
  1  8  1  0  0  0  0
  1  9  1  0  0  0  0
M  CHG  3   1  -2   2   1   3   1
M  END
> <PUBCHEM_COMPOUND_CID>
61856

> <PUBCHEM_COMPOUND_CANONICALIZED>
1

> <PUBCHEM_CACTVS_COMPLEXITY>
62.7

> <PUBCHEM_CACTVS_HBOND_ACCEPTOR>
1

> <PUBCHEM_CACTVS_HBOND_DONOR>
0

> <PUBCHEM_CACTVS_ROTATABLE_BOND>
0

> <PUBCHEM_CACTVS_SUBSKEYS>
AAADcQAAAAAHYAAAAAAABAAAAAAAAAAAAAAAAAAAAAAAAAAAAAAAAAAAAAAAAAAAAAAAAAAAAAAAAAAAAAAAAAAAAAAAAAAAAAAAAAAAAAAAAAAAAAAAAAAAAAAAAAAAAAAAAAAAAAAAAAAAAAAAAAAAAA==

> <PUBCHEM_IUPAC_OPENEYE_NAME>
dipotassium;hexachloroplatinum(2-)

> <PUBCHEM_IUPAC_CAS_NAME>
dipotassium;hexachloroplatinum(2-)

> <PUBCHEM_IUPAC_NAME_MARKUP>
dipotassium;hexachloroplatinum(2-)

> <PUBCHEM_IUPAC_NAME>
dipotassium;hexachloroplatinum(2-)

> <PUBCHEM_IUPAC_SYSTEMATIC_NAME>
dipotassium;hexakis(chloranyl)platinum(2-)

> <PUBCHEM_IUPAC_TRADITIONAL_NAME>
dipotassium;hexachloroplatinum(2-)

> <PUBCHEM_IUPAC_INCHI>
InChI=1S/6ClH.2K.Pt/h6*1H;;;/q;;;;;;2*+1;+4/p-6

> <PUBCHEM_IUPAC_INCHIKEY>
DPAIVKJGTXERIM-UHFFFAOYSA-H

> <PUBCHEM_EXACT_MASS>
484.702373

> <PUBCHEM_MOLECULAR_FORMULA>
Cl6K2Pt

> <PUBCHEM_MOLECULAR_WEIGHT>
486.0

> <PUBCHEM_SMILES>
Cl[Pt-2](Cl)(Cl)(Cl)(Cl)Cl.[K+].[K+]

> <PUBCHEM_CONNECTIVITY_SMILES>
Cl[Pt-2](Cl)(Cl)(Cl)(Cl)Cl.[K+].[K+]

> <PUBCHEM_CACTVS_TPSA>
0

> <PUBCHEM_MONOISOTOPIC_WEIGHT>
482.705323

> <PUBCHEM_TOTAL_CHARGE>
0

> <PUBCHEM_HEAVY_ATOM_COUNT>
9

> <PUBCHEM_ATOM_DEF_STEREO_COUNT>
0

> <PUBCHEM_ATOM_UDEF_STEREO_COUNT>
0

> <PUBCHEM_BOND_DEF_STEREO_COUNT>
0

> <PUBCHEM_BOND_UDEF_STEREO_COUNT>
0

> <PUBCHEM_ISOTOPIC_ATOM_COUNT>
0

> <PUBCHEM_COMPONENT_COUNT>
3

> <PUBCHEM_CACTVS_TAUTO_COUNT>
-1

> <PUBCHEM_COORDINATE_TYPE>
1
5
255

$$$$
