16211481
  -OEChem-08152607042D

 17 12  0     0  0  0  0  0  0999 V2000
    2.5981    2.2500    0.0000 Pr  0  0  0  0  0  0  0  0  0  0  0  0
    0.8660    2.2500    0.0000 Pr  0  0  0  0  0  0  0  0  0  0  0  0
    6.3301    0.5000    0.0000 Pr  0  0  0  0  0  0  0  0  0  0  0  0
    6.3301    3.5000    0.0000 Pr  0  0  0  0  0  0  0  0  0  0  0  0
    6.3301    6.5000    0.0000 Pr  0  0  0  0  0  0  0  0  0  0  0  0
    1.7321    4.7500    0.0000 Pr  0  0  0  0  0  0  0  0  0  0  0  0
    1.7321    1.7500    0.0000 O   0  0  0  0  0  0  0  0  0  0  0  0
    3.4641    1.7500    0.0000 O   0  0  0  0  0  0  0  0  0  0  0  0
    0.0000    1.7500    0.0000 O   0  0  0  0  0  0  0  0  0  0  0  0
    7.1962    1.0000    0.0000 O   0  0  0  0  0  0  0  0  0  0  0  0
    5.4641    0.0000    0.0000 O   0  0  0  0  0  0  0  0  0  0  0  0
    7.1962    4.0000    0.0000 O   0  0  0  0  0  0  0  0  0  0  0  0
    5.4641    3.0000    0.0000 O   0  0  0  0  0  0  0  0  0  0  0  0
    7.1962    7.0000    0.0000 O   0  0  0  0  0  0  0  0  0  0  0  0
    5.4641    6.0000    0.0000 O   0  0  0  0  0  0  0  0  0  0  0  0
    2.5981    5.2500    0.0000 O   0  0  0  0  0  0  0  0  0  0  0  0
    0.8660    4.2500    0.0000 O   0  0  0  0  0  0  0  0  0  0  0  0
  1  7  1  0  0  0  0
  1  8  2  0  0  0  0
  2  7  1  0  0  0  0
  2  9  2  0  0  0  0
  3 10  2  0  0  0  0
  3 11  2  0  0  0  0
  4 12  2  0  0  0  0
  4 13  2  0  0  0  0
  5 14  2  0  0  0  0
  5 15  2  0  0  0  0
  6 16  2  0  0  0  0
  6 17  2  0  0  0  0
M  END
> <PUBCHEM_COMPOUND_CID>
16211481

> <PUBCHEM_COMPOUND_CANONICALIZED>
1

> <PUBCHEM_CACTVS_COMPLEXITY>
52.4

> <PUBCHEM_CACTVS_HBOND_ACCEPTOR>
11

> <PUBCHEM_CACTVS_HBOND_DONOR>
0

> <PUBCHEM_CACTVS_ROTATABLE_BOND>
0

> <PUBCHEM_CACTVS_SUBSKEYS>
AAADcQAAPAAAAAAAAAAAAAQAAAAAAAAAAAAAAAAAAAAAAAAAAAAAAAAAAAAAAAAAAAAAAAAAAAAAAAAAAAAAAAAAAAAAAAAAAAAAAAAAAAAAAAAAAAAAAAAAAAAAAAAAAAAAAAAAAAAAAAAAAAAAAAAAAA==

> <PUBCHEM_IUPAC_OPENEYE_NAME>
tetrakis(dioxopraseodymium);oxo(oxopraseodymiooxy)praseodymium

> <PUBCHEM_IUPAC_CAS_NAME>
tetrakis(dioxopraseodymium);oxo(oxopraseodymiooxy)praseodymium

> <PUBCHEM_IUPAC_NAME_MARKUP>
tetrakis(dioxopraseodymium);oxo(oxopraseodymiooxy)praseodymium

> <PUBCHEM_IUPAC_NAME>
tetrakis(dioxopraseodymium);oxo(oxopraseodymiooxy)praseodymium

> <PUBCHEM_IUPAC_SYSTEMATIC_NAME>
bis(oxidanylidene)praseodymium;oxidanylidene(oxidanylidenepraseodymiooxy)praseodymium

> <PUBCHEM_IUPAC_TRADITIONAL_NAME>
tetrakis(diketopraseodymium);keto(ketopraseodymiooxy)praseodymium

> <PUBCHEM_IUPAC_INCHI>
InChI=1S/11O.6Pr

> <PUBCHEM_IUPAC_INCHIKEY>
AICMLAQRDYRMRP-UHFFFAOYSA-N

> <PUBCHEM_EXACT_MASS>
1021.39002

> <PUBCHEM_MOLECULAR_FORMULA>
O11Pr6

> <PUBCHEM_MOLECULAR_WEIGHT>
1021.44

> <PUBCHEM_SMILES>
O=[Pr]=O.O=[Pr]=O.O=[Pr]=O.O=[Pr]=O.O=[Pr]O[Pr]=O

> <PUBCHEM_CONNECTIVITY_SMILES>
O=[Pr]=O.O=[Pr]=O.O=[Pr]=O.O=[Pr]=O.O=[Pr]O[Pr]=O

> <PUBCHEM_CACTVS_TPSA>
180

> <PUBCHEM_MONOISOTOPIC_WEIGHT>
1021.39002

> <PUBCHEM_TOTAL_CHARGE>
0

> <PUBCHEM_HEAVY_ATOM_COUNT>
17

> <PUBCHEM_ATOM_DEF_STEREO_COUNT>
0

> <PUBCHEM_ATOM_UDEF_STEREO_COUNT>
0

> <PUBCHEM_BOND_DEF_STEREO_COUNT>
0

> <PUBCHEM_BOND_UDEF_STEREO_COUNT>
0

> <PUBCHEM_ISOTOPIC_ATOM_COUNT>
0

> <PUBCHEM_COMPONENT_COUNT>
5

> <PUBCHEM_CACTVS_TAUTO_COUNT>
-1

> <PUBCHEM_COORDINATE_TYPE>
1
5
255

$$$$
