158616883
  -OEChem-08152604412D

  7  3  0     0  0  0  0  0  0999 V2000
    3.2500    0.0000    0.0000 Pm  0  0  0  0  0  0  0  0  0  0  0  0
    0.0000    2.5000    0.0000 O   0  5  0  0  0  0  0  0  0  0  0  0
    3.0000    2.5000    0.0000 O   0  5  0  0  0  0  0  0  0  0  0  0
    3.0000    5.0000    0.0000 O   0  5  0  0  0  0  0  0  0  0  0  0
    1.0000    2.5000    0.0000 H   0  0  0  0  0  0  0  0  0  0  0  0
    4.0000    2.5000    0.0000 H   0  0  0  0  0  0  0  0  0  0  0  0
    4.0000    5.0000    0.0000 H   0  0  0  0  0  0  0  0  0  0  0  0
  2  5  1  0  0  0  0
  3  6  1  0  0  0  0
  4  7  1  0  0  0  0
M  CHG  3   2  -1   3  -1   4  -1
M  END
> <PUBCHEM_COMPOUND_CID>
158616883

> <PUBCHEM_COMPOUND_CANONICALIZED>
1

> <PUBCHEM_CACTVS_COMPLEXITY>
0

> <PUBCHEM_CACTVS_HBOND_ACCEPTOR>
3

> <PUBCHEM_CACTVS_HBOND_DONOR>
3

> <PUBCHEM_CACTVS_ROTATABLE_BOND>
0

> <PUBCHEM_CACTVS_SUBSKEYS>
AAADcQAAMAAAAAAAAAAAAAEAAAAAAAAAAAAAAAAAAAAAAAAAAAAAAAAACAAAAAAAAAAAAAAAAAAAAAAAAAAAAAAAAAAAAAAAAAAAAAAAAAAAAAAAAAAAAAAAAAAAAAAAAAAAAAAAAAAAAAAAAAAAAAAAAA==

> <PUBCHEM_IUPAC_OPENEYE_NAME>
promethium trihydroxide

> <PUBCHEM_IUPAC_CAS_NAME>
promethium trihydroxide

> <PUBCHEM_IUPAC_NAME_MARKUP>
promethium trihydroxide

> <PUBCHEM_IUPAC_NAME>
promethium trihydroxide

> <PUBCHEM_IUPAC_SYSTEMATIC_NAME>
promethium trihydroxide

> <PUBCHEM_IUPAC_TRADITIONAL_NAME>
promethium trihydroxide

> <PUBCHEM_IUPAC_INCHI>
InChI=1S/3H2O.Pm/h3*1H2;/p-3

> <PUBCHEM_IUPAC_INCHIKEY>
RNZFBEKOXIGQMQ-UHFFFAOYSA-K

> <PUBCHEM_EXACT_MASS>
195.92097

> <PUBCHEM_MOLECULAR_FORMULA>
H3O3Pm-3

> <PUBCHEM_MOLECULAR_WEIGHT>
195.935

> <PUBCHEM_SMILES>
[OH-].[OH-].[OH-].[Pm]

> <PUBCHEM_CONNECTIVITY_SMILES>
[OH-].[OH-].[OH-].[Pm]

> <PUBCHEM_CACTVS_TPSA>
3

> <PUBCHEM_MONOISOTOPIC_WEIGHT>
195.92097

> <PUBCHEM_TOTAL_CHARGE>
-3

> <PUBCHEM_HEAVY_ATOM_COUNT>
4

> <PUBCHEM_ATOM_DEF_STEREO_COUNT>
0

> <PUBCHEM_ATOM_UDEF_STEREO_COUNT>
0

> <PUBCHEM_BOND_DEF_STEREO_COUNT>
0

> <PUBCHEM_BOND_UDEF_STEREO_COUNT>
0

> <PUBCHEM_ISOTOPIC_ATOM_COUNT>
0

> <PUBCHEM_COMPONENT_COUNT>
4

> <PUBCHEM_CACTVS_TAUTO_COUNT>
-1

> <PUBCHEM_COORDINATE_TYPE>
1
5
255

$$$$
