157405367
  -OEChem-08152605052D

  5  3  0     0  0  0  0  0  0999 V2000
    0.6160    0.0000    0.0000 Pm  0  0  0  0  0  0  0  0  0  0  0  0
    1.7320    4.0000    0.0000 O   0  5  0  0  0  0  0  0  0  0  0  0
    0.0000    4.0000    0.0000 O   0  5  0  0  0  0  0  0  0  0  0  0
    0.8660    2.5000    0.0000 O   0  5  0  0  0  0  0  0  0  0  0  0
    0.8660    3.5000    0.0000 B   0  0  0  0  0  0  0  0  0  0  0  0
  2  5  1  0  0  0  0
  3  5  1  0  0  0  0
  4  5  1  0  0  0  0
M  CHG  3   2  -1   3  -1   4  -1
M  END
> <PUBCHEM_COMPOUND_CID>
157405367

> <PUBCHEM_COMPOUND_CANONICALIZED>
1

> <PUBCHEM_CACTVS_COMPLEXITY>
8

> <PUBCHEM_CACTVS_HBOND_ACCEPTOR>
3

> <PUBCHEM_CACTVS_HBOND_DONOR>
0

> <PUBCHEM_CACTVS_ROTATABLE_BOND>
0

> <PUBCHEM_CACTVS_SUBSKEYS>
AAADcQIAMAAAAAAAAAAAAAEAAAAAAAAAAAAAAAAAAAAAAAAAAAAIAAAAAAAAAAAAAAAAAAAAAAAAAAAAAAAAAAAAAAAAAAAAAAAAAAAAAAAAAAAAAAAAAAAAAAAAAAAAAAAAAAAAAAAAAAAAAAAAAAAAAA==

> <PUBCHEM_IUPAC_OPENEYE_NAME>
promethium borate

> <PUBCHEM_IUPAC_CAS_NAME>
promethium borate

> <PUBCHEM_IUPAC_NAME_MARKUP>
promethium borate

> <PUBCHEM_IUPAC_NAME>
promethium borate

> <PUBCHEM_IUPAC_SYSTEMATIC_NAME>
promethium borate

> <PUBCHEM_IUPAC_TRADITIONAL_NAME>
promethium borate

> <PUBCHEM_IUPAC_INCHI>
InChI=1S/BO3.Pm/c2-1(3)4;/q-3;

> <PUBCHEM_IUPAC_INCHIKEY>
YNFWIINHDWLNFY-UHFFFAOYSA-N

> <PUBCHEM_EXACT_MASS>
203.90680

> <PUBCHEM_MOLECULAR_FORMULA>
BO3Pm-3

> <PUBCHEM_MOLECULAR_WEIGHT>
203.72

> <PUBCHEM_SMILES>
B([O-])([O-])[O-].[Pm]

> <PUBCHEM_CONNECTIVITY_SMILES>
B([O-])([O-])[O-].[Pm]

> <PUBCHEM_CACTVS_TPSA>
69.2

> <PUBCHEM_MONOISOTOPIC_WEIGHT>
203.90680

> <PUBCHEM_TOTAL_CHARGE>
-3

> <PUBCHEM_HEAVY_ATOM_COUNT>
5

> <PUBCHEM_ATOM_DEF_STEREO_COUNT>
0

> <PUBCHEM_ATOM_UDEF_STEREO_COUNT>
0

> <PUBCHEM_BOND_DEF_STEREO_COUNT>
0

> <PUBCHEM_BOND_UDEF_STEREO_COUNT>
0

> <PUBCHEM_ISOTOPIC_ATOM_COUNT>
0

> <PUBCHEM_COMPONENT_COUNT>
2

> <PUBCHEM_CACTVS_TAUTO_COUNT>
-1

> <PUBCHEM_COORDINATE_TYPE>
1
5
255

$$$$
