11602575
  -OEChem-08152604352D

  5  0  0     0  0  0  0  0  0999 V2000
    2.5000    5.0000    0.0000 Pm  0  0  0  0  0  0  0  0  0  0  0  0
    5.0000    2.5000    0.0000 Pm  0  0  0  0  0  0  0  0  0  0  0  0
    0.0000    2.5000    0.0000 O   0  6  0  0  0  0  0  0  0  0  0  0
    2.5000    0.0000    0.0000 O   0  6  0  0  0  0  0  0  0  0  0  0
    2.5000    2.5000    0.0000 O   0  6  0  0  0  0  0  0  0  0  0  0
M  CHG  3   3  -2   4  -2   5  -2
M  END
> <PUBCHEM_COMPOUND_CID>
11602575

> <PUBCHEM_COMPOUND_CANONICALIZED>
1

> <PUBCHEM_CACTVS_COMPLEXITY>
0

> <PUBCHEM_CACTVS_HBOND_ACCEPTOR>
3

> <PUBCHEM_CACTVS_HBOND_DONOR>
0

> <PUBCHEM_CACTVS_ROTATABLE_BOND>
0

> <PUBCHEM_CACTVS_SUBSKEYS>
AAADcQAAMAAAAAAAAAAAAAEAAAAAAAAAAAAAAAAAAAAAAAAAAAAAAAAAAAAAAAAAAAAAAAAAAAAAAAAAAAAAAAAAAAAAAAAAAAAAAAAAAAAAAAAAAAAAAAAAAAAAAAAAAAAAAAAAAAAAAAAAAAAAAAAAAA==

> <PUBCHEM_IUPAC_OPENEYE_NAME>
tris(oxygen(2-));promethium

> <PUBCHEM_IUPAC_CAS_NAME>
tris(oxygen(2-));promethium

> <PUBCHEM_IUPAC_NAME_MARKUP>
tris(oxygen(2-));promethium

> <PUBCHEM_IUPAC_NAME>
tris(oxygen(2-));promethium

> <PUBCHEM_IUPAC_SYSTEMATIC_NAME>
tris(oxygen(2-));promethium

> <PUBCHEM_IUPAC_TRADITIONAL_NAME>
tris(oxygen(2-));promethium

> <PUBCHEM_IUPAC_INCHI>
InChI=1S/3O.2Pm/q3*-2;;

> <PUBCHEM_IUPAC_INCHIKEY>
FVTRXXUOGOFHAG-UHFFFAOYSA-N

> <PUBCHEM_EXACT_MASS>
337.81026

> <PUBCHEM_MOLECULAR_FORMULA>
O3Pm2-6

> <PUBCHEM_MOLECULAR_WEIGHT>
337.824

> <PUBCHEM_SMILES>
[O-2].[O-2].[O-2].[Pm].[Pm]

> <PUBCHEM_CONNECTIVITY_SMILES>
[O-2].[O-2].[O-2].[Pm].[Pm]

> <PUBCHEM_CACTVS_TPSA>
3

> <PUBCHEM_MONOISOTOPIC_WEIGHT>
337.81026

> <PUBCHEM_TOTAL_CHARGE>
-6

> <PUBCHEM_HEAVY_ATOM_COUNT>
5

> <PUBCHEM_ATOM_DEF_STEREO_COUNT>
0

> <PUBCHEM_ATOM_UDEF_STEREO_COUNT>
0

> <PUBCHEM_BOND_DEF_STEREO_COUNT>
0

> <PUBCHEM_BOND_UDEF_STEREO_COUNT>
0

> <PUBCHEM_ISOTOPIC_ATOM_COUNT>
0

> <PUBCHEM_COMPONENT_COUNT>
5

> <PUBCHEM_CACTVS_TAUTO_COUNT>
-1

> <PUBCHEM_COORDINATE_TYPE>
1
5
255

$$$$
