11047828
  -OEChem-08152604362D

  6  5  0     0  0  0  0  0  0999 V2000
    2.9945   -0.0323    0.0000 Pa  0  0  0  0  0  0  0  0  0  0  0  0
    3.8606    0.4677    0.0000 Cl  0  0  0  0  0  0  0  0  0  0  0  0
    2.0000    0.0722    0.0000 Cl  0  0  0  0  0  0  0  0  0  0  0  0
    2.5878   -0.9458    0.0000 Cl  0  0  0  0  0  0  0  0  0  0  0  0
    2.7866    0.9458    0.0000 Cl  0  0  0  0  0  0  0  0  0  0  0  0
    3.7377   -0.7014    0.0000 Cl  0  0  0  0  0  0  0  0  0  0  0  0
  1  2  1  0  0  0  0
  1  3  1  0  0  0  0
  1  4  1  0  0  0  0
  1  5  1  0  0  0  0
  1  6  1  0  0  0  0
M  END
> <PUBCHEM_COMPOUND_CID>
11047828

> <PUBCHEM_COMPOUND_CANONICALIZED>
1

> <PUBCHEM_CACTVS_COMPLEXITY>
37.1

> <PUBCHEM_CACTVS_HBOND_ACCEPTOR>
0

> <PUBCHEM_CACTVS_HBOND_DONOR>
0

> <PUBCHEM_CACTVS_ROTATABLE_BOND>
0

> <PUBCHEM_CACTVS_SUBSKEYS>
AAADcQAAAAAHAAAAAAAAAAAAAAAAAAAAAAAAAAAAAAAAAAAAAAAAAAAAAAAAAAAAAAAAAAAAAAAAAAAAAAAAAAAAAAAAAAAAAAAAAAAAAAAAAAAAAAAAAAAAAAAAAAAAAAAAAAAAAAAAAAAAAAAAAAAAAA==

> <PUBCHEM_IUPAC_OPENEYE_NAME>
pentachloroprotactinium

> <PUBCHEM_IUPAC_CAS_NAME>
pentachloroprotactinium

> <PUBCHEM_IUPAC_NAME_MARKUP>
pentachloroprotactinium

> <PUBCHEM_IUPAC_NAME>
pentachloroprotactinium

> <PUBCHEM_IUPAC_SYSTEMATIC_NAME>
pentakis(chloranyl)protactinium

> <PUBCHEM_IUPAC_TRADITIONAL_NAME>
pentachloroprotactinium

> <PUBCHEM_IUPAC_INCHI>
InChI=1S/5ClH.Pa/h5*1H;/q;;;;;+5/p-5

> <PUBCHEM_IUPAC_INCHIKEY>
QRPCDPJECLHYKR-UHFFFAOYSA-I

> <PUBCHEM_EXACT_MASS>
407.87720

> <PUBCHEM_MOLECULAR_FORMULA>
Cl5Pa

> <PUBCHEM_MOLECULAR_WEIGHT>
408.3

> <PUBCHEM_SMILES>
Cl[Pa](Cl)(Cl)(Cl)Cl

> <PUBCHEM_CONNECTIVITY_SMILES>
Cl[Pa](Cl)(Cl)(Cl)Cl

> <PUBCHEM_CACTVS_TPSA>
0

> <PUBCHEM_MONOISOTOPIC_WEIGHT>
405.88015

> <PUBCHEM_TOTAL_CHARGE>
0

> <PUBCHEM_HEAVY_ATOM_COUNT>
6

> <PUBCHEM_ATOM_DEF_STEREO_COUNT>
0

> <PUBCHEM_ATOM_UDEF_STEREO_COUNT>
0

> <PUBCHEM_BOND_DEF_STEREO_COUNT>
0

> <PUBCHEM_BOND_UDEF_STEREO_COUNT>
0

> <PUBCHEM_ISOTOPIC_ATOM_COUNT>
0

> <PUBCHEM_COMPONENT_COUNT>
1

> <PUBCHEM_CACTVS_TAUTO_COUNT>
-1

> <PUBCHEM_COORDINATE_TYPE>
1
5
255

$$$$
