129817214
  -OEChem-08152607272D

 38 31  0     0  0  0  0  0  0999 V2000
    3.1307    6.3479    0.0000 Pa  0  0  0  0  0  0  0  0  0  0  0  0
    1.3987    2.3479    0.0000 Pa  0  0  0  0  0  0  0  0  0  0  0  0
    3.9397    6.9356    0.0000 O   0  0  0  0  0  0  0  0  0  0  0  0
    2.3217    6.9356    0.0000 O   0  0  0  0  0  0  0  0  0  0  0  0
    0.5897    1.7601    0.0000 O   0  0  0  0  0  0  0  0  0  0  0  0
    2.2077    1.7601    0.0000 O   0  0  0  0  0  0  0  0  0  0  0  0
    3.1307    5.3479    0.0000 O   0  0  0  0  0  0  0  0  0  0  0  0
    1.3987    3.3479    0.0000 O   0  0  0  0  0  0  0  0  0  0  0  0
    4.2185    8.6957    0.0000 O   0  0  0  0  0  0  0  0  0  0  0  0
    2.0429    8.6957    0.0000 O   0  0  0  0  0  0  0  0  0  0  0  0
    0.3109    0.0000    0.0000 O   0  0  0  0  0  0  0  0  0  0  0  0
    2.4865    0.0000    0.0000 O   0  0  0  0  0  0  0  0  0  0  0  0
    1.3987    5.3479    0.0000 O   0  0  0  0  0  0  0  0  0  0  0  0
    3.1307    3.3479    0.0000 O   0  0  0  0  0  0  0  0  0  0  0  0
    9.1275    6.3479    0.0000 O   0  5  0  0  0  0  0  0  0  0  0  0
    6.5294    6.8479    0.0000 O   0  5  0  0  0  0  0  0  0  0  0  0
    9.1275    1.8479    0.0000 O   0  5  0  0  0  0  0  0  0  0  0  0
    6.5294    2.3479    0.0000 O   0  5  0  0  0  0  0  0  0  0  0  0
    8.2614    7.8479    0.0000 O   0  0  0  0  0  0  0  0  0  0  0  0
    7.3954    5.3479    0.0000 O   0  0  0  0  0  0  0  0  0  0  0  0
    8.2614    3.3479    0.0000 O   0  0  0  0  0  0  0  0  0  0  0  0
    7.3954    0.8479    0.0000 O   0  0  0  0  0  0  0  0  0  0  0  0
    3.6307    7.8867    0.0000 C   0  0  0  0  0  0  0  0  0  0  0  0
    2.6307    7.8867    0.0000 C   0  0  0  0  0  0  0  0  0  0  0  0
    0.8987    0.8090    0.0000 C   0  0  0  0  0  0  0  0  0  0  0  0
    1.8987    0.8090    0.0000 C   0  0  0  0  0  0  0  0  0  0  0  0
    2.2647    4.8479    0.0000 C   0  0  0  0  0  0  0  0  0  0  0  0
    2.2647    3.8479    0.0000 C   0  0  0  0  0  0  0  0  0  0  0  0
    8.2614    6.8479    0.0000 C   0  0  0  0  0  0  0  0  0  0  0  0
    7.3954    6.3479    0.0000 C   0  0  0  0  0  0  0  0  0  0  0  0
    8.2614    2.3479    0.0000 C   0  0  0  0  0  0  0  0  0  0  0  0
    7.3954    1.8479    0.0000 C   0  0  0  0  0  0  0  0  0  0  0  0
    4.5294    6.7440    0.0000 H   0  0  0  0  0  0  0  0  0  0  0  0
    1.7320    6.7440    0.0000 H   0  0  0  0  0  0  0  0  0  0  0  0
    0.0000    1.9517    0.0000 H   0  0  0  0  0  0  0  0  0  0  0  0
    2.7973    1.9517    0.0000 H   0  0  0  0  0  0  0  0  0  0  0  0
    3.6677    5.0379    0.0000 H   0  0  0  0  0  0  0  0  0  0  0  0
    0.8617    3.6579    0.0000 H   0  0  0  0  0  0  0  0  0  0  0  0
  3 23  1  0  0  0  0
  3 33  1  0  0  0  0
  4 24  1  0  0  0  0
  4 34  1  0  0  0  0
  5 25  1  0  0  0  0
  5 35  1  0  0  0  0
  6 26  1  0  0  0  0
  6 36  1  0  0  0  0
  7 27  1  0  0  0  0
  7 37  1  0  0  0  0
  8 28  1  0  0  0  0
  8 38  1  0  0  0  0
  9 23  2  0  0  0  0
 10 24  2  0  0  0  0
 11 25  2  0  0  0  0
 12 26  2  0  0  0  0
 13 27  2  0  0  0  0
 14 28  2  0  0  0  0
 15 29  1  0  0  0  0
 16 30  1  0  0  0  0
 17 31  1  0  0  0  0
 18 32  1  0  0  0  0
 19 29  2  0  0  0  0
 20 30  2  0  0  0  0
 21 31  2  0  0  0  0
 22 32  2  0  0  0  0
 23 24  1  0  0  0  0
 25 26  1  0  0  0  0
 27 28  1  0  0  0  0
 29 30  1  0  0  0  0
 31 32  1  0  0  0  0
M  CHG  4  15  -1  16  -1  17  -1  18  -1
M  END
> <PUBCHEM_COMPOUND_CID>
129817214

> <PUBCHEM_COMPOUND_CANONICALIZED>
1

> <PUBCHEM_CACTVS_COMPLEXITY>
375

> <PUBCHEM_CACTVS_HBOND_ACCEPTOR>
20

> <PUBCHEM_CACTVS_HBOND_DONOR>
6

> <PUBCHEM_CACTVS_ROTATABLE_BOND>
1

> <PUBCHEM_CACTVS_SUBSKEYS>
AAADcYBwPgAAAAAAAAAAAAAAAAAAASJAAAAAAAAAAAAAAAAAAAAACgAACAAAAAAAgAAACAAAAgAIAACQCAIAAAAAAAAAAABAAAABAAAAAAAAAAAAAAABAAAAAAAAAAAAAAAAAAAAAAAAAAAAAAAAAAAAAA==

> <PUBCHEM_IUPAC_OPENEYE_NAME>
oxalate;oxalic acid;protactinium

> <PUBCHEM_IUPAC_CAS_NAME>
oxalate;oxalic acid;protactinium

> <PUBCHEM_IUPAC_NAME_MARKUP>
oxalate;oxalic acid;protactinium

> <PUBCHEM_IUPAC_NAME>
oxalate;oxalic acid;protactinium

> <PUBCHEM_IUPAC_SYSTEMATIC_NAME>
bis(ethanedioate);tris(ethanedioic acid);protactinium

> <PUBCHEM_IUPAC_TRADITIONAL_NAME>
oxalate;oxalic acid;protactinium

> <PUBCHEM_IUPAC_INCHI>
InChI=1S/5C2H2O4.2Pa/c5*3-1(4)2(5)6;;/h5*(H,3,4)(H,5,6);;/p-4

> <PUBCHEM_IUPAC_INCHIKEY>
YHBQJNCMSIHOAQ-UHFFFAOYSA-J

> <PUBCHEM_EXACT_MASS>
908.01701

> <PUBCHEM_MOLECULAR_FORMULA>
C10H6O20Pa2-4

> <PUBCHEM_MOLECULAR_WEIGHT>
908.21

> <PUBCHEM_SMILES>
C(=O)(C(=O)O)O.C(=O)(C(=O)O)O.C(=O)(C(=O)O)O.C(=O)(C(=O)[O-])[O-].C(=O)(C(=O)[O-])[O-].[Pa].[Pa]

> <PUBCHEM_CONNECTIVITY_SMILES>
C(=O)(C(=O)O)O.C(=O)(C(=O)O)O.C(=O)(C(=O)O)O.C(=O)(C(=O)[O-])[O-].C(=O)(C(=O)[O-])[O-].[Pa].[Pa]

> <PUBCHEM_CACTVS_TPSA>
384

> <PUBCHEM_MONOISOTOPIC_WEIGHT>
908.01701

> <PUBCHEM_TOTAL_CHARGE>
-4

> <PUBCHEM_HEAVY_ATOM_COUNT>
32

> <PUBCHEM_ATOM_DEF_STEREO_COUNT>
0

> <PUBCHEM_ATOM_UDEF_STEREO_COUNT>
0

> <PUBCHEM_BOND_DEF_STEREO_COUNT>
0

> <PUBCHEM_BOND_UDEF_STEREO_COUNT>
0

> <PUBCHEM_ISOTOPIC_ATOM_COUNT>
0

> <PUBCHEM_COMPONENT_COUNT>
7

> <PUBCHEM_CACTVS_TAUTO_COUNT>
-1

> <PUBCHEM_NONSTANDARDBOND>
1  3  6
1  4  6
1  7  6
2  5  6
2  6  6
2  8  6

> <PUBCHEM_COORDINATE_TYPE>
1
5
255

$$$$
