14788
  -OEChem-08152604392D

  3  2  0     0  0  0  0  0  0999 V2000
    2.8660    0.0000    0.0000 Fe  0  0  0  0  0  0  0  0  0  0  0  0
    3.7320    0.5000    0.0000 S   0  0  0  0  0  0  0  0  0  0  0  0
    2.0000   -0.5000    0.0000 S   0  0  0  0  0  0  0  0  0  0  0  0
  1  2  2  0  0  0  0
  1  3  2  0  0  0  0
M  END
> <PUBCHEM_COMPOUND_CID>
14788

> <PUBCHEM_COMPOUND_CANONICALIZED>
1

> <PUBCHEM_CACTVS_COMPLEXITY>
18.3

> <PUBCHEM_CACTVS_HBOND_ACCEPTOR>
2

> <PUBCHEM_CACTVS_HBOND_DONOR>
0

> <PUBCHEM_CACTVS_ROTATABLE_BOND>
0

> <PUBCHEM_CACTVS_SUBSKEYS>
AAADcQAAAABgAAAgAAAAAAAAAAAAAAAAAAAAAAAAAAAAAAAAAAAAAAAAAAAAAAAAAAAAAAAAAAAAAAAAAAAAAAAAAAAAAAAAAAAAAAAAAAAAAAAAAAAAAAAAAAAAAAAAAAAAAAAAAAAAAAAAAAAAAAAAAA==

> <PUBCHEM_IUPAC_OPENEYE_NAME>
dithioxoiron

> <PUBCHEM_IUPAC_CAS_NAME>
bis(sulfanylidene)iron

> <PUBCHEM_IUPAC_NAME_MARKUP>
bis(sulfanylidene)iron

> <PUBCHEM_IUPAC_NAME>
bis(sulfanylidene)iron

> <PUBCHEM_IUPAC_SYSTEMATIC_NAME>
bis(sulfanylidene)iron

> <PUBCHEM_IUPAC_TRADITIONAL_NAME>
dithioxoiron

> <PUBCHEM_IUPAC_INCHI>
InChI=1S/Fe.2S

> <PUBCHEM_IUPAC_INCHIKEY>
NFMAZVUSKIJEIH-UHFFFAOYSA-N

> <PUBCHEM_EXACT_MASS>
119.879078

> <PUBCHEM_MOLECULAR_FORMULA>
FeS2

> <PUBCHEM_MOLECULAR_WEIGHT>
119.98

> <PUBCHEM_SMILES>
S=[Fe]=S

> <PUBCHEM_CONNECTIVITY_SMILES>
S=[Fe]=S

> <PUBCHEM_CACTVS_TPSA>
64.2

> <PUBCHEM_MONOISOTOPIC_WEIGHT>
119.879078

> <PUBCHEM_TOTAL_CHARGE>
0

> <PUBCHEM_HEAVY_ATOM_COUNT>
3

> <PUBCHEM_ATOM_DEF_STEREO_COUNT>
0

> <PUBCHEM_ATOM_UDEF_STEREO_COUNT>
0

> <PUBCHEM_BOND_DEF_STEREO_COUNT>
0

> <PUBCHEM_BOND_UDEF_STEREO_COUNT>
0

> <PUBCHEM_ISOTOPIC_ATOM_COUNT>
0

> <PUBCHEM_COMPONENT_COUNT>
1

> <PUBCHEM_CACTVS_TAUTO_COUNT>
-1

> <PUBCHEM_COORDINATE_TYPE>
1
5
255

$$$$
