6365212
  -OEChem-08152605072D

  2  0  0     0  0  0  0  0  0999 V2000
    0.0000    2.5000    0.0000 Ra  0  0  0  0  0 15  0  0  0  0  0  0
    0.0000    0.0000    0.0000 Br  0  5  0  0  0  0  0  0  0  0  0  0
M  CHG  1   2  -1
M  END
> <PUBCHEM_COMPOUND_CID>
6365212

> <PUBCHEM_COMPOUND_CANONICALIZED>
1

> <PUBCHEM_CACTVS_COMPLEXITY>
0

> <PUBCHEM_CACTVS_HBOND_ACCEPTOR>
1

> <PUBCHEM_CACTVS_HBOND_DONOR>
0

> <PUBCHEM_CACTVS_ROTATABLE_BOND>
0

> <PUBCHEM_CACTVS_SUBSKEYS>
AAADcQAAAAAAEAAAAAAAAAAAAAAAAAAAAAAAAAAAAAAAAAAAAAAAAAAAAAAAAAAAAAAAAAAAAAAAAAAAAAAAAAAAAAAAAAAAAAAAAAAAAAAAAAAAAAAAAAAAAAAAAAAAAAAAAAAAAAAAAAAAAAAAAAAAAA==

> <PUBCHEM_IUPAC_OPENEYE_NAME>
radium bromide

> <PUBCHEM_IUPAC_CAS_NAME>
radium bromide

> <PUBCHEM_IUPAC_NAME_MARKUP>
radium bromide

> <PUBCHEM_IUPAC_NAME>
radium bromide

> <PUBCHEM_IUPAC_SYSTEMATIC_NAME>
radium bromide

> <PUBCHEM_IUPAC_TRADITIONAL_NAME>
radium bromide

> <PUBCHEM_IUPAC_INCHI>
InChI=1S/BrH.Ra/h1H;/p-1

> <PUBCHEM_IUPAC_INCHIKEY>
UHKMHUJOEVZQSV-UHFFFAOYSA-M

> <PUBCHEM_EXACT_MASS>
304.94375

> <PUBCHEM_MOLECULAR_FORMULA>
BrRa-

> <PUBCHEM_MOLECULAR_WEIGHT>
305.93

> <PUBCHEM_SMILES>
[Br-].[Ra]

> <PUBCHEM_CONNECTIVITY_SMILES>
[Br-].[Ra]

> <PUBCHEM_CACTVS_TPSA>
0

> <PUBCHEM_MONOISOTOPIC_WEIGHT>
304.94375

> <PUBCHEM_TOTAL_CHARGE>
-1

> <PUBCHEM_HEAVY_ATOM_COUNT>
2

> <PUBCHEM_ATOM_DEF_STEREO_COUNT>
0

> <PUBCHEM_ATOM_UDEF_STEREO_COUNT>
0

> <PUBCHEM_BOND_DEF_STEREO_COUNT>
0

> <PUBCHEM_BOND_UDEF_STEREO_COUNT>
0

> <PUBCHEM_ISOTOPIC_ATOM_COUNT>
0

> <PUBCHEM_COMPONENT_COUNT>
2

> <PUBCHEM_CACTVS_TAUTO_COUNT>
-1

> <PUBCHEM_COORDINATE_TYPE>
1
5
255

$$$$
