6365210
  -OEChem-08152605232D

  2  0  0     0  0  0  0  0  0999 V2000
    0.0000    2.5000    0.0000 Ra  0  0  0  0  0 15  0  0  0  0  0  0
    0.0000    0.0000    0.0000 Cl  0  5  0  0  0  0  0  0  0  0  0  0
M  CHG  1   2  -1
M  END
> <PUBCHEM_COMPOUND_CID>
6365210

> <PUBCHEM_COMPOUND_CANONICALIZED>
1

> <PUBCHEM_CACTVS_COMPLEXITY>
0

> <PUBCHEM_CACTVS_HBOND_ACCEPTOR>
1

> <PUBCHEM_CACTVS_HBOND_DONOR>
0

> <PUBCHEM_CACTVS_ROTATABLE_BOND>
0

> <PUBCHEM_CACTVS_SUBSKEYS>
AAADcQAAAAAEAAAAAAAAAAAAAAAAAAAAAAAAAAAAAAAAAAAAAAAAAAAAAAAAAAAAAAAAAAAAAAAAAAAAAAAAAAAAAAAAAAAAAAAAAAAAAAAAAAAAAAAAAAAAAAAAAAAAAAAAAAAAAAAAAAAAAAAAAAAAAA==

> <PUBCHEM_IUPAC_OPENEYE_NAME>
radium chloride

> <PUBCHEM_IUPAC_CAS_NAME>
radium chloride

> <PUBCHEM_IUPAC_NAME_MARKUP>
radium chloride

> <PUBCHEM_IUPAC_NAME>
radium chloride

> <PUBCHEM_IUPAC_SYSTEMATIC_NAME>
radium chloride

> <PUBCHEM_IUPAC_TRADITIONAL_NAME>
radium chloride

> <PUBCHEM_IUPAC_INCHI>
InChI=1S/ClH.Ra/h1H;/p-1

> <PUBCHEM_IUPAC_INCHIKEY>
GLNANKXPHOWMKO-UHFFFAOYSA-M

> <PUBCHEM_EXACT_MASS>
260.99426

> <PUBCHEM_MOLECULAR_FORMULA>
ClRa-

> <PUBCHEM_MOLECULAR_WEIGHT>
261.48

> <PUBCHEM_SMILES>
[Cl-].[Ra]

> <PUBCHEM_CONNECTIVITY_SMILES>
[Cl-].[Ra]

> <PUBCHEM_CACTVS_TPSA>
0

> <PUBCHEM_MONOISOTOPIC_WEIGHT>
260.99426

> <PUBCHEM_TOTAL_CHARGE>
-1

> <PUBCHEM_HEAVY_ATOM_COUNT>
2

> <PUBCHEM_ATOM_DEF_STEREO_COUNT>
0

> <PUBCHEM_ATOM_UDEF_STEREO_COUNT>
0

> <PUBCHEM_BOND_DEF_STEREO_COUNT>
0

> <PUBCHEM_BOND_UDEF_STEREO_COUNT>
0

> <PUBCHEM_ISOTOPIC_ATOM_COUNT>
0

> <PUBCHEM_COMPONENT_COUNT>
2

> <PUBCHEM_CACTVS_TAUTO_COUNT>
-1

> <PUBCHEM_COORDINATE_TYPE>
1
5
255

$$$$
