4111989
  -OEChem-08152605372D

 10  7  0     0  0  0  0  0  0999 V2000
    2.7071   -0.3536    0.0000 Re  0  0  0  0  0  0  0  0  0  0  0  0
    4.3801    0.0947    0.0000 Re  0  0  0  0  0  0  0  0  0  0  0  0
    3.4142    0.3536    0.0000 S   0  5  0  0  0  0  0  0  0  0  0  0
    2.0000   -1.0607    0.0000 S   0  0  0  0  0  0  0  0  0  0  0  0
    3.4142   -1.0607    0.0000 S   0  0  0  0  0  0  0  0  0  0  0  0
    2.0000    0.3536    0.0000 S   0  0  0  0  0  0  0  0  0  0  0  0
    5.3461   -0.1641    0.0000 S   0  0  0  0  0  0  0  0  0  0  0  0
    4.6390    1.0607    0.0000 S   0  0  0  0  0  0  0  0  0  0  0  0
    4.1213   -0.8712    0.0000 S   0  0  0  0  0  0  0  0  0  0  0  0
    3.2538    0.9524    0.0000 H   0  0  0  0  0  0  0  0  0  0  0  0
  1  4  2  0  0  0  0
  1  5  2  0  0  0  0
  1  6  2  0  0  0  0
  2  7  2  0  0  0  0
  2  8  2  0  0  0  0
  2  9  2  0  0  0  0
  3 10  1  0  0  0  0
M  CHG  1   3  -1
M  END
> <PUBCHEM_COMPOUND_CID>
4111989

> <PUBCHEM_COMPOUND_CANONICALIZED>
1

> <PUBCHEM_CACTVS_COMPLEXITY>
154

> <PUBCHEM_CACTVS_HBOND_ACCEPTOR>
7

> <PUBCHEM_CACTVS_HBOND_DONOR>
1

> <PUBCHEM_CACTVS_ROTATABLE_BOND>
0

> <PUBCHEM_CACTVS_SUBSKEYS>
AAADcQAAAABwAAAAAAAAIAAAAAAAAAAAAAAAAAAAAAAAAAAAAAAAAAAAAAAAAAAAAAAAAAAAAAAAAAAAAAAAAAAAAAAAAAAAAAAAAAAAAAAAAAAAAAAAAAAAAAAAAAAAAAAAAAAAAAAAAAAAAAAAAAAAAA==

> <PUBCHEM_IUPAC_OPENEYE_NAME>
sulfanide;bis(trithioxorhenium)

> <PUBCHEM_IUPAC_CAS_NAME>
sulfanide;bis(tris(sulfanylidene)rhenium)

> <PUBCHEM_IUPAC_NAME_MARKUP>
sulfanide;bis(tris(sulfanylidene)rhenium)

> <PUBCHEM_IUPAC_NAME>
sulfanide;bis(tris(sulfanylidene)rhenium)

> <PUBCHEM_IUPAC_SYSTEMATIC_NAME>
sulfanide;bis(tris(sulfanylidene)rhenium)

> <PUBCHEM_IUPAC_TRADITIONAL_NAME>
bis(trithioxorhenium);bisulfide

> <PUBCHEM_IUPAC_INCHI>
InChI=1S/2Re.H2S.6S/h;;1H2;;;;;;/p-1

> <PUBCHEM_IUPAC_INCHIKEY>
AQXYDBKYCQZMNH-UHFFFAOYSA-M

> <PUBCHEM_EXACT_MASS>
596.72103

> <PUBCHEM_MOLECULAR_FORMULA>
HRe2S7-

> <PUBCHEM_MOLECULAR_WEIGHT>
597.9

> <PUBCHEM_SMILES>
[SH-].S=[Re](=S)=S.S=[Re](=S)=S

> <PUBCHEM_CONNECTIVITY_SMILES>
[SH-].S=[Re](=S)=S.S=[Re](=S)=S

> <PUBCHEM_CACTVS_TPSA>
194

> <PUBCHEM_MONOISOTOPIC_WEIGHT>
598.72383

> <PUBCHEM_TOTAL_CHARGE>
-1

> <PUBCHEM_HEAVY_ATOM_COUNT>
9

> <PUBCHEM_ATOM_DEF_STEREO_COUNT>
0

> <PUBCHEM_ATOM_UDEF_STEREO_COUNT>
0

> <PUBCHEM_BOND_DEF_STEREO_COUNT>
0

> <PUBCHEM_BOND_UDEF_STEREO_COUNT>
0

> <PUBCHEM_ISOTOPIC_ATOM_COUNT>
0

> <PUBCHEM_COMPONENT_COUNT>
3

> <PUBCHEM_CACTVS_TAUTO_COUNT>
-1

> <PUBCHEM_NONSTANDARDBOND>
1  3  6
2  3  6

> <PUBCHEM_COORDINATE_TYPE>
1
5
255

$$$$
