13159444
  -OEChem-08152606092D

  5  4  0     0  0  0  0  0  0999 V2000
    2.7071    0.0000    0.0000 Re  0  0  0  0  0  0  0  0  0  0  0  0
    3.4142    0.7071    0.0000 I   0  0  0  0  0  0  0  0  0  0  0  0
    2.0000   -0.7071    0.0000 I   0  0  0  0  0  0  0  0  0  0  0  0
    2.0000    0.7071    0.0000 I   0  0  0  0  0  0  0  0  0  0  0  0
    3.4142   -0.7071    0.0000 I   0  0  0  0  0  0  0  0  0  0  0  0
  1  2  1  0  0  0  0
  1  3  1  0  0  0  0
  1  4  1  0  0  0  0
  1  5  1  0  0  0  0
M  END
> <PUBCHEM_COMPOUND_CID>
13159444

> <PUBCHEM_COMPOUND_CANONICALIZED>
1

> <PUBCHEM_CACTVS_COMPLEXITY>
19.1

> <PUBCHEM_CACTVS_HBOND_ACCEPTOR>
0

> <PUBCHEM_CACTVS_HBOND_DONOR>
0

> <PUBCHEM_CACTVS_ROTATABLE_BOND>
0

> <PUBCHEM_CACTVS_SUBSKEYS>
AAADcQAAAAAAA4AAAAAAIAAAAAAAAAAAAAAAAAAAAAAAAAAAAAAAAAAAAAAAAAAAAAAAAAAAAAAAAAAAAAAAAAAAAAAAAAAAAAAAAAAAAAAAAAAAAAAAAAAAAAAAAAAAAAAAAAAAAAAAAAAAAAAAAAAAAA==

> <PUBCHEM_IUPAC_OPENEYE_NAME>
tetraiodorhenium

> <PUBCHEM_IUPAC_CAS_NAME>
tetraiodorhenium

> <PUBCHEM_IUPAC_NAME_MARKUP>
tetraiodorhenium

> <PUBCHEM_IUPAC_NAME>
tetraiodorhenium

> <PUBCHEM_IUPAC_SYSTEMATIC_NAME>
tetrakis(iodanyl)rhenium

> <PUBCHEM_IUPAC_TRADITIONAL_NAME>
tetraiodorhenium

> <PUBCHEM_IUPAC_INCHI>
InChI=1S/4HI.Re/h4*1H;/q;;;;+4/p-4

> <PUBCHEM_IUPAC_INCHIKEY>
KGKLLWHEYDUTBF-UHFFFAOYSA-J

> <PUBCHEM_EXACT_MASS>
694.5736

> <PUBCHEM_MOLECULAR_FORMULA>
I4Re

> <PUBCHEM_MOLECULAR_WEIGHT>
693.825

> <PUBCHEM_SMILES>
I[Re](I)(I)I

> <PUBCHEM_CONNECTIVITY_SMILES>
I[Re](I)(I)I

> <PUBCHEM_CACTVS_TPSA>
0

> <PUBCHEM_MONOISOTOPIC_WEIGHT>
694.5736

> <PUBCHEM_TOTAL_CHARGE>
0

> <PUBCHEM_HEAVY_ATOM_COUNT>
5

> <PUBCHEM_ATOM_DEF_STEREO_COUNT>
0

> <PUBCHEM_ATOM_UDEF_STEREO_COUNT>
0

> <PUBCHEM_BOND_DEF_STEREO_COUNT>
0

> <PUBCHEM_BOND_UDEF_STEREO_COUNT>
0

> <PUBCHEM_ISOTOPIC_ATOM_COUNT>
0

> <PUBCHEM_COMPONENT_COUNT>
1

> <PUBCHEM_CACTVS_TAUTO_COUNT>
-1

> <PUBCHEM_COORDINATE_TYPE>
1
5
255

$$$$
