169803
  -OEChem-08152606452D

  5  0  0     0  0  0  0  0  0999 V2000
    5.0000    2.5000    0.0000 Re  0  0  0  0  0  0  0  0  0  0  0  0
    0.0000    2.5000    0.0000 Br  0  5  0  0  0  0  0  0  0  0  0  0
    2.5000    0.0000    0.0000 Br  0  5  0  0  0  0  0  0  0  0  0  0
    2.5000    2.5000    0.0000 Br  0  5  0  0  0  0  0  0  0  0  0  0
    2.5000    5.0000    0.0000 Br  0  5  0  0  0  0  0  0  0  0  0  0
M  CHG  4   2  -1   3  -1   4  -1   5  -1
M  END
> <PUBCHEM_COMPOUND_CID>
169803

> <PUBCHEM_COMPOUND_CANONICALIZED>
1

> <PUBCHEM_CACTVS_COMPLEXITY>
0

> <PUBCHEM_CACTVS_HBOND_ACCEPTOR>
4

> <PUBCHEM_CACTVS_HBOND_DONOR>
0

> <PUBCHEM_CACTVS_ROTATABLE_BOND>
0

> <PUBCHEM_CACTVS_SUBSKEYS>
AAADcQAAAAAAHAAAAAAAIAAAAAAAAAAAAAAAAAAAAAAAAAAAAAAAAAAAAAAAAAAAAAAAAAAAAAAAAAAAAAAAAAAAAAAAAAAAAAAAAAAAAAAAAAAAAAAAAAAAAAAAAAAAAAAAAAAAAAAAAAAAAAAAAAAAAA==

> <PUBCHEM_IUPAC_OPENEYE_NAME>
rhenium tetrabromide

> <PUBCHEM_IUPAC_CAS_NAME>
rhenium tetrabromide

> <PUBCHEM_IUPAC_NAME_MARKUP>
rhenium tetrabromide

> <PUBCHEM_IUPAC_NAME>
rhenium tetrabromide

> <PUBCHEM_IUPAC_SYSTEMATIC_NAME>
rhenium tetrabromide

> <PUBCHEM_IUPAC_TRADITIONAL_NAME>
rhenium tetrabromide

> <PUBCHEM_IUPAC_INCHI>
InChI=1S/4BrH.Re/h4*1H;/p-4

> <PUBCHEM_IUPAC_INCHIKEY>
VZNJRGXVXJNOHG-UHFFFAOYSA-J

> <PUBCHEM_EXACT_MASS>
506.62500

> <PUBCHEM_MOLECULAR_FORMULA>
Br4Re-4

> <PUBCHEM_MOLECULAR_WEIGHT>
505.82

> <PUBCHEM_SMILES>
[Br-].[Br-].[Br-].[Br-].[Re]

> <PUBCHEM_CONNECTIVITY_SMILES>
[Br-].[Br-].[Br-].[Br-].[Re]

> <PUBCHEM_CACTVS_TPSA>
0

> <PUBCHEM_MONOISOTOPIC_WEIGHT>
502.62910

> <PUBCHEM_TOTAL_CHARGE>
-4

> <PUBCHEM_HEAVY_ATOM_COUNT>
5

> <PUBCHEM_ATOM_DEF_STEREO_COUNT>
0

> <PUBCHEM_ATOM_UDEF_STEREO_COUNT>
0

> <PUBCHEM_BOND_DEF_STEREO_COUNT>
0

> <PUBCHEM_BOND_UDEF_STEREO_COUNT>
0

> <PUBCHEM_ISOTOPIC_ATOM_COUNT>
0

> <PUBCHEM_COMPONENT_COUNT>
5

> <PUBCHEM_CACTVS_TAUTO_COUNT>
-1

> <PUBCHEM_COORDINATE_TYPE>
1
5
255

$$$$
