123106
  -OEChem-08152607072D

  9  8  0     0  0  0  0  0  0999 V2000
    2.7071   -0.3536    0.0000 Re  0  0  0  0  0  0  0  0  0  0  0  0
    4.3801    0.0947    0.0000 Re  0  0  0  0  0  0  0  0  0  0  0  0
    3.4142    0.3536    0.0000 O   0  0  0  0  0  0  0  0  0  0  0  0
    2.0000   -1.0607    0.0000 O   0  0  0  0  0  0  0  0  0  0  0  0
    3.4142   -1.0607    0.0000 O   0  0  0  0  0  0  0  0  0  0  0  0
    2.0000    0.3536    0.0000 O   0  0  0  0  0  0  0  0  0  0  0  0
    5.3461   -0.1641    0.0000 O   0  0  0  0  0  0  0  0  0  0  0  0
    4.6390    1.0607    0.0000 O   0  0  0  0  0  0  0  0  0  0  0  0
    4.1213   -0.8712    0.0000 O   0  0  0  0  0  0  0  0  0  0  0  0
  1  3  1  6  0  0  0
  1  4  2  1  0  0  0
  1  5  2  1  0  0  0
  1  6  2  6  0  0  0
  2  3  1  1  0  0  0
  2  7  2  0  0  0  0
  2  8  2  0  0  0  0
  2  9  2  0  0  0  0
M  END
> <PUBCHEM_COMPOUND_CID>
123106

> <PUBCHEM_COMPOUND_CANONICALIZED>
1

> <PUBCHEM_CACTVS_COMPLEXITY>
283

> <PUBCHEM_CACTVS_HBOND_ACCEPTOR>
7

> <PUBCHEM_CACTVS_HBOND_DONOR>
0

> <PUBCHEM_CACTVS_ROTATABLE_BOND>
0

> <PUBCHEM_CACTVS_SUBSKEYS>
AAADcQAAOAAAAAAAAAAAIAAAAAAAAAAAAAAAAAAAAAAAAAAAAAAAAAAAAAAAAAAAAAAAAAAAAAAAAAAAAAAAAAAAAAAAAAAAAAAAAAAAAAAAAAAAAAAAAAAAAAAAAAAAAAAAAAAAAAAAAAAAAAAAAAAAAA==

> <PUBCHEM_IUPAC_OPENEYE_NAME>
trioxo(trioxorheniooxy)rhenium

> <PUBCHEM_IUPAC_CAS_NAME>
trioxo(trioxorheniooxy)rhenium

> <PUBCHEM_IUPAC_NAME_MARKUP>
trioxo(trioxorheniooxy)rhenium

> <PUBCHEM_IUPAC_NAME>
trioxo(trioxorheniooxy)rhenium

> <PUBCHEM_IUPAC_SYSTEMATIC_NAME>
tris(oxidanylidene)-[tris(oxidanylidene)rheniooxy]rhenium

> <PUBCHEM_IUPAC_TRADITIONAL_NAME>
triketo(triketorheniooxy)rhenium

> <PUBCHEM_IUPAC_INCHI>
InChI=1S/7O.2Re

> <PUBCHEM_IUPAC_INCHIKEY>
NBGOSNNAAHDRLK-UHFFFAOYSA-N

> <PUBCHEM_EXACT_MASS>
483.87311

> <PUBCHEM_MOLECULAR_FORMULA>
O7Re2

> <PUBCHEM_MOLECULAR_WEIGHT>
484.41

> <PUBCHEM_SMILES>
O=[Re](=O)(=O)O[Re](=O)(=O)=O

> <PUBCHEM_CONNECTIVITY_SMILES>
O=[Re](=O)(=O)O[Re](=O)(=O)=O

> <PUBCHEM_CACTVS_TPSA>
112

> <PUBCHEM_MONOISOTOPIC_WEIGHT>
485.87591

> <PUBCHEM_TOTAL_CHARGE>
0

> <PUBCHEM_HEAVY_ATOM_COUNT>
9

> <PUBCHEM_ATOM_DEF_STEREO_COUNT>
0

> <PUBCHEM_ATOM_UDEF_STEREO_COUNT>
0

> <PUBCHEM_BOND_DEF_STEREO_COUNT>
0

> <PUBCHEM_BOND_UDEF_STEREO_COUNT>
0

> <PUBCHEM_ISOTOPIC_ATOM_COUNT>
0

> <PUBCHEM_COMPONENT_COUNT>
1

> <PUBCHEM_CACTVS_TAUTO_COUNT>
-1

> <PUBCHEM_COORDINATE_TYPE>
1
5
255

> <PUBCHEM_BONDANNOTATIONS>
1  3  6
1  4  5
1  5  5
1  6  6
2  3  5

$$$$
