11282158
  -OEChem-08152607362D

 25 21  0     0  0  0  0  0  0999 V2000
    4.5981    0.3170    0.0000 Rh  0  0  0  0  0  0  0  0  0  0  0  0
    8.0622    1.3170    0.0000 F   0  0  0  0  0  0  0  0  0  0  0  0
    7.6962   -0.0490    0.0000 F   0  0  0  0  0  0  0  0  0  0  0  0
    6.6962    1.6830    0.0000 F   0  0  0  0  0  0  0  0  0  0  0  0
    2.0000    2.8170    0.0000 F   0  0  0  0  0  0  0  0  0  0  0  0
    3.3660    3.1830    0.0000 F   0  0  0  0  0  0  0  0  0  0  0  0
    2.3660    1.4510    0.0000 F   0  0  0  0  0  0  0  0  0  0  0  0
    3.7320   -3.1830    0.0000 F   0  0  0  0  0  0  0  0  0  0  0  0
    2.7320   -2.1830    0.0000 F   0  0  0  0  0  0  0  0  0  0  0  0
    4.7320   -2.1830    0.0000 F   0  0  0  0  0  0  0  0  0  0  0  0
    5.4641    0.8170    0.0000 O   0  0  0  0  0  0  0  0  0  0  0  0
    3.7320    0.8170    0.0000 O   0  0  0  0  0  0  0  0  0  0  0  0
    4.5981   -0.6830    0.0000 O   0  0  0  0  0  0  0  0  0  0  0  0
    6.3301   -0.6830    0.0000 O   0  0  0  0  0  0  0  0  0  0  0  0
    4.5981    2.3170    0.0000 O   0  0  0  0  0  0  0  0  0  0  0  0
    2.8660   -0.6830    0.0000 O   0  0  0  0  0  0  0  0  0  0  0  0
    6.3301    0.3170    0.0000 C   0  0  0  0  0  0  0  0  0  0  0  0
    3.7320    1.8170    0.0000 C   0  0  0  0  0  0  0  0  0  0  0  0
    3.7320   -1.1830    0.0000 C   0  0  0  0  0  0  0  0  0  0  0  0
    7.1962    0.8170    0.0000 C   0  0  0  0  0  0  0  0  0  0  0  0
    2.8660    2.3170    0.0000 C   0  0  0  0  0  0  0  0  0  0  0  0
    3.7320   -2.1830    0.0000 C   0  0  0  0  0  0  0  0  0  0  0  0
    5.4641    1.4370    0.0000 H   0  0  0  0  0  0  0  0  0  0  0  0
    3.1951    0.5070    0.0000 H   0  0  0  0  0  0  0  0  0  0  0  0
    5.1350   -0.9930    0.0000 H   0  0  0  0  0  0  0  0  0  0  0  0
  2 20  1  0  0  0  0
  3 20  1  0  0  0  0
  4 20  1  0  0  0  0
  5 21  1  0  0  0  0
  6 21  1  0  0  0  0
  7 21  1  0  0  0  0
  8 22  1  0  0  0  0
  9 22  1  0  0  0  0
 10 22  1  0  0  0  0
 11 17  1  0  0  0  0
 11 23  1  0  0  0  0
 12 18  1  0  0  0  0
 12 24  1  0  0  0  0
 13 19  1  0  0  0  0
 13 25  1  0  0  0  0
 14 17  2  0  0  0  0
 15 18  2  0  0  0  0
 16 19  2  0  0  0  0
 17 20  1  0  0  0  0
 18 21  1  0  0  0  0
 19 22  1  0  0  0  0
M  END
> <PUBCHEM_COMPOUND_CID>
11282158

> <PUBCHEM_COMPOUND_CANONICALIZED>
1

> <PUBCHEM_CACTVS_COMPLEXITY>
313

> <PUBCHEM_CACTVS_HBOND_ACCEPTOR>
15

> <PUBCHEM_CACTVS_HBOND_DONOR>
3

> <PUBCHEM_CACTVS_ROTATABLE_BOND>
0

> <PUBCHEM_CACTVS_SUBSKEYS>
AAADcQBgOcAAAAAAABAAAAAAAAAAAAAAAAAAAAAAAAAAAAAAAAAACwAACAAAAAAAgBAACAAAAgAIAACQCAAAAAAAAAAAAAAAAAAAAAAAAAAAAAAAAAAAAAAAAAAAAAAAAAAAAAAAAAAAAAAAAAAAAAAAAA==

> <PUBCHEM_IUPAC_OPENEYE_NAME>
rhodium;tris(2,2,2-trifluoroacetic acid)

> <PUBCHEM_IUPAC_CAS_NAME>
rhodium;tris(2,2,2-trifluoroacetic acid)

> <PUBCHEM_IUPAC_NAME_MARKUP>
rhodium;tris(2,2,2-trifluoroacetic acid)

> <PUBCHEM_IUPAC_NAME>
rhodium;tris(2,2,2-trifluoroacetic acid)

> <PUBCHEM_IUPAC_SYSTEMATIC_NAME>
rhodium;tris(2,2,2-tris(fluoranyl)ethanoic acid)

> <PUBCHEM_IUPAC_TRADITIONAL_NAME>
rhodium;tris(2,2,2-trifluoroacetic acid)

> <PUBCHEM_IUPAC_INCHI>
InChI=1S/3C2HF3O2.Rh/c3*3-2(4,5)1(6)7;/h3*(H,6,7);

> <PUBCHEM_IUPAC_INCHIKEY>
YYMIBHJWQNMSPK-UHFFFAOYSA-N

> <PUBCHEM_EXACT_MASS>
444.88409

> <PUBCHEM_MOLECULAR_FORMULA>
C6H3F9O6Rh

> <PUBCHEM_MOLECULAR_WEIGHT>
444.98

> <PUBCHEM_SMILES>
C(=O)(C(F)(F)F)O.C(=O)(C(F)(F)F)O.C(=O)(C(F)(F)F)O.[Rh]

> <PUBCHEM_CONNECTIVITY_SMILES>
C(=O)(C(F)(F)F)O.C(=O)(C(F)(F)F)O.C(=O)(C(F)(F)F)O.[Rh]

> <PUBCHEM_CACTVS_TPSA>
112

> <PUBCHEM_MONOISOTOPIC_WEIGHT>
444.88409

> <PUBCHEM_TOTAL_CHARGE>
0

> <PUBCHEM_HEAVY_ATOM_COUNT>
22

> <PUBCHEM_ATOM_DEF_STEREO_COUNT>
0

> <PUBCHEM_ATOM_UDEF_STEREO_COUNT>
0

> <PUBCHEM_BOND_DEF_STEREO_COUNT>
0

> <PUBCHEM_BOND_UDEF_STEREO_COUNT>
0

> <PUBCHEM_ISOTOPIC_ATOM_COUNT>
0

> <PUBCHEM_COMPONENT_COUNT>
4

> <PUBCHEM_CACTVS_TAUTO_COUNT>
-1

> <PUBCHEM_NONSTANDARDBOND>
1  11  6
1  12  6
1  13  6

> <PUBCHEM_COORDINATE_TYPE>
1
5
255

$$$$
