10293666
  -OEChem-08152604392D

 12  4  0     0  0  0  0  0  0999 V2000
    4.2321    0.0000    0.0000 Rh  0  0  0  0  0  0  0  0  0  0  0  0
    4.2321    3.0000    0.0000 Rh  0  0  0  0  0  0  0  0  0  0  0  0
    0.0000    3.0000    0.0000 Cl  0  5  0  0  0  0  0  0  0  0  0  0
    3.9821    6.0000    0.0000 Cl  0  5  0  0  0  0  0  0  0  0  0  0
    5.9641    1.0000    0.0000 O   0  3  0  0  0  0  0  0  0  0  0  0
    2.5000    1.0000    0.0000 O   0  3  0  0  0  0  0  0  0  0  0  0
    5.9641    4.0000    0.0000 O   0  3  0  0  0  0  0  0  0  0  0  0
    2.5000    4.0000    0.0000 O   0  3  0  0  0  0  0  0  0  0  0  0
    5.0981    0.5000    0.0000 C   0  5  0  0  0  0  0  0  0  0  0  0
    3.3660    0.5000    0.0000 C   0  5  0  0  0  0  0  0  0  0  0  0
    5.0981    3.5000    0.0000 C   0  5  0  0  0  0  0  0  0  0  0  0
    3.3660    3.5000    0.0000 C   0  5  0  0  0  0  0  0  0  0  0  0
  5  9  3  0  0  0  0
  6 10  3  0  0  0  0
  7 11  3  0  0  0  0
  8 12  3  0  0  0  0
M  CHG  8   3  -1   4  -1   5   1   6   1   7   1   8   1   9  -1  10  -1
M  CHG  2  11  -1  12  -1
M  END
> <PUBCHEM_COMPOUND_CID>
10293666

> <PUBCHEM_COMPOUND_CANONICALIZED>
1

> <PUBCHEM_CACTVS_COMPLEXITY>
10

> <PUBCHEM_CACTVS_HBOND_ACCEPTOR>
6

> <PUBCHEM_CACTVS_HBOND_DONOR>
0

> <PUBCHEM_CACTVS_ROTATABLE_BOND>
0

> <PUBCHEM_CACTVS_SUBSKEYS>
AAADcQBgOAAGAAAAABAAAAAAAAAAAAAAAAAAAAAAAAAAAAAAAAAAAgAAAAAAAAAAAAAAAAAAAAAAAAAAAAAAAAAAAAAAAAAAAAAAAAAAAAAAAAAAAAAAAAAAAAAAAAAAAAAAAAAAAAAAAAAAAAAAAAAAAA==

> <PUBCHEM_IUPAC_OPENEYE_NAME>
carbon monoxide;bis(rhodium);dichloride

> <PUBCHEM_IUPAC_CAS_NAME>
carbon monoxide;bis(rhodium);dichloride

> <PUBCHEM_IUPAC_NAME_MARKUP>
carbon monoxide;bis(rhodium);dichloride

> <PUBCHEM_IUPAC_NAME>
carbon monoxide;bis(rhodium);dichloride

> <PUBCHEM_IUPAC_SYSTEMATIC_NAME>
carbon monoxide;bis(rhodium);dichloride

> <PUBCHEM_IUPAC_TRADITIONAL_NAME>
carbon monoxide;bis(rhodium);dichloride

> <PUBCHEM_IUPAC_INCHI>
InChI=1S/4CO.2ClH.2Rh/c4*1-2;;;;/h;;;;2*1H;;/p-2

> <PUBCHEM_IUPAC_INCHIKEY>
MCZSLXCABFHUSS-UHFFFAOYSA-L

> <PUBCHEM_EXACT_MASS>
387.72835

> <PUBCHEM_MOLECULAR_FORMULA>
C4Cl2O4Rh2-2

> <PUBCHEM_MOLECULAR_WEIGHT>
388.75

> <PUBCHEM_SMILES>
[C-]#[O+].[C-]#[O+].[C-]#[O+].[C-]#[O+].[Cl-].[Cl-].[Rh].[Rh]

> <PUBCHEM_CONNECTIVITY_SMILES>
[C-]#[O+].[C-]#[O+].[C-]#[O+].[C-]#[O+].[Cl-].[Cl-].[Rh].[Rh]

> <PUBCHEM_CACTVS_TPSA>
4

> <PUBCHEM_MONOISOTOPIC_WEIGHT>
387.72835

> <PUBCHEM_TOTAL_CHARGE>
-2

> <PUBCHEM_HEAVY_ATOM_COUNT>
12

> <PUBCHEM_ATOM_DEF_STEREO_COUNT>
0

> <PUBCHEM_ATOM_UDEF_STEREO_COUNT>
0

> <PUBCHEM_BOND_DEF_STEREO_COUNT>
0

> <PUBCHEM_BOND_UDEF_STEREO_COUNT>
0

> <PUBCHEM_ISOTOPIC_ATOM_COUNT>
0

> <PUBCHEM_COMPONENT_COUNT>
8

> <PUBCHEM_CACTVS_TAUTO_COUNT>
-1

> <PUBCHEM_COORDINATE_TYPE>
1
5
255

$$$$
