166625
  -OEChem-08152606392D

  6  0  0     0  0  0  0  0  0999 V2000
    5.4641    0.2500    0.0000 Rb  0  3  0  0  0  0  0  0  0  0  0  0
    2.0000    0.2500    0.0000 Rb  0  3  0  0  0  0  0  0  0  0  0  0
    3.7321    0.2500    0.0000 Ti  0  0  0  0  0  0  0  0  0  0  0  0
    4.5981    0.7500    0.0000 O   0  6  0  0  0  0  0  0  0  0  0  0
    2.8660    0.7500    0.0000 O   0  6  0  0  0  0  0  0  0  0  0  0
    3.7321   -0.7500    0.0000 O   0  6  0  0  0  0  0  0  0  0  0  0
M  CHG  6   1   1   2   1   3   4   4  -2   5  -2   6  -2
M  END
> <PUBCHEM_COMPOUND_CID>
166625

> <PUBCHEM_COMPOUND_CANONICALIZED>
1

> <PUBCHEM_CACTVS_COMPLEXITY>
0

> <PUBCHEM_CACTVS_HBOND_ACCEPTOR>
3

> <PUBCHEM_CACTVS_HBOND_DONOR>
0

> <PUBCHEM_CACTVS_ROTATABLE_BOND>
0

> <PUBCHEM_CACTVS_SUBSKEYS>
AAADcQAAMAAAAAIACAAAAAAAAAAAAAAAAAAAAAAAAAAAAAAAAAAAAAAAAAAAAAAAAAAAAAAAAAAAAAAAAAAAAAAAAAAAAAAAAAAAAAAAAAAAAAAAAAAAAAAAAAAAAAAAAAAAAAAAAAAAAAAAAAAAAAAAAA==

> <PUBCHEM_IUPAC_OPENEYE_NAME>
tris(oxygen(2-));bis(rubidium(1+));titanium(4+)

> <PUBCHEM_IUPAC_CAS_NAME>
tris(oxygen(2-));bis(rubidium(1+));titanium(4+)

> <PUBCHEM_IUPAC_NAME_MARKUP>
tris(oxygen(2-));bis(rubidium(1+));titanium(4+)

> <PUBCHEM_IUPAC_NAME>
tris(oxygen(2-));bis(rubidium(1+));titanium(4+)

> <PUBCHEM_IUPAC_SYSTEMATIC_NAME>
tris(oxygen(2-));bis(rubidium(1+));titanium(4+)

> <PUBCHEM_IUPAC_TRADITIONAL_NAME>
tris(oxygen(2-));bis(rubidium(1+));titanium(4+)

> <PUBCHEM_IUPAC_INCHI>
InChI=1S/3O.2Rb.Ti/q3*-2;2*+1;+4

> <PUBCHEM_IUPAC_INCHIKEY>
KVGSDUSYVJYNHV-UHFFFAOYSA-N

> <PUBCHEM_EXACT_MASS>
265.7562640

> <PUBCHEM_MOLECULAR_FORMULA>
O3Rb2Ti

> <PUBCHEM_MOLECULAR_WEIGHT>
266.801

> <PUBCHEM_SMILES>
[O-2].[O-2].[O-2].[Ti+4].[Rb+].[Rb+]

> <PUBCHEM_CONNECTIVITY_SMILES>
[O-2].[O-2].[O-2].[Ti+4].[Rb+].[Rb+]

> <PUBCHEM_CACTVS_TPSA>
3

> <PUBCHEM_MONOISOTOPIC_WEIGHT>
265.7562640

> <PUBCHEM_TOTAL_CHARGE>
0

> <PUBCHEM_HEAVY_ATOM_COUNT>
6

> <PUBCHEM_ATOM_DEF_STEREO_COUNT>
0

> <PUBCHEM_ATOM_UDEF_STEREO_COUNT>
0

> <PUBCHEM_BOND_DEF_STEREO_COUNT>
0

> <PUBCHEM_BOND_UDEF_STEREO_COUNT>
0

> <PUBCHEM_ISOTOPIC_ATOM_COUNT>
0

> <PUBCHEM_COMPONENT_COUNT>
6

> <PUBCHEM_CACTVS_TAUTO_COUNT>
-1

> <PUBCHEM_COORDINATE_TYPE>
1
5
255

$$$$
