89824
  -OEChem-08152607132D

  4  2  0     0  0  0  0  0  0999 V2000
    2.0000   -0.0000    0.0000 Rb  0  3  0  0  0  0  0  0  0  0  0  0
    2.8660   -0.5000    0.0000 N   0  5  0  0  0  0  0  0  0  0  0  0
    3.7321    0.0000    0.0000 N   0  3  0  0  0  0  0  0  0  0  0  0
    4.5981    0.5000    0.0000 N   0  5  0  0  0  0  0  0  0  0  0  0
  2  3  2  0  0  0  0
  3  4  2  0  0  0  0
M  CHG  4   1   1   2  -1   3   1   4  -1
M  END
> <PUBCHEM_COMPOUND_CID>
89824

> <PUBCHEM_COMPOUND_CANONICALIZED>
1

> <PUBCHEM_CACTVS_COMPLEXITY>
26.3

> <PUBCHEM_CACTVS_HBOND_ACCEPTOR>
2

> <PUBCHEM_CACTVS_HBOND_DONOR>
0

> <PUBCHEM_CACTVS_ROTATABLE_BOND>
0

> <PUBCHEM_CACTVS_SUBSKEYS>
AAADcQADAAAAAAAACAAAAAAAAAAAAAAAAAAAAAAAAAAAAAAAAAAAAAAIAAAAAAAAAAAAAAAAAAACAAAAAAAAAAAAAAAAAAAAAAAAAAAAAAAAAAAAAAAAAAAAAAAAAAAAAAAAAAAAAAAAAAAAAAAAAAAAAA==

> <PUBCHEM_IUPAC_OPENEYE_NAME>
rubidium(1+) azide

> <PUBCHEM_IUPAC_CAS_NAME>
rubidium(1+) azide

> <PUBCHEM_IUPAC_NAME_MARKUP>
rubidium(1+) azide

> <PUBCHEM_IUPAC_NAME>
rubidium(1+) azide

> <PUBCHEM_IUPAC_SYSTEMATIC_NAME>
rubidium(1+) azide

> <PUBCHEM_IUPAC_TRADITIONAL_NAME>
rubidium(1+) azide

> <PUBCHEM_IUPAC_INCHI>
InChI=1S/N3.Rb/c1-3-2;/q-1;+1

> <PUBCHEM_IUPAC_INCHIKEY>
GEWQYWRSUXOTOL-UHFFFAOYSA-N

> <PUBCHEM_EXACT_MASS>
126.92101175

> <PUBCHEM_MOLECULAR_FORMULA>
N3Rb

> <PUBCHEM_MOLECULAR_WEIGHT>
127.488

> <PUBCHEM_SMILES>
[N-]=[N+]=[N-].[Rb+]

> <PUBCHEM_CONNECTIVITY_SMILES>
[N-]=[N+]=[N-].[Rb+]

> <PUBCHEM_CACTVS_TPSA>
3

> <PUBCHEM_MONOISOTOPIC_WEIGHT>
126.92101175

> <PUBCHEM_TOTAL_CHARGE>
0

> <PUBCHEM_HEAVY_ATOM_COUNT>
4

> <PUBCHEM_ATOM_DEF_STEREO_COUNT>
0

> <PUBCHEM_ATOM_UDEF_STEREO_COUNT>
0

> <PUBCHEM_BOND_DEF_STEREO_COUNT>
0

> <PUBCHEM_BOND_UDEF_STEREO_COUNT>
0

> <PUBCHEM_ISOTOPIC_ATOM_COUNT>
0

> <PUBCHEM_COMPONENT_COUNT>
2

> <PUBCHEM_CACTVS_TAUTO_COUNT>
-1

> <PUBCHEM_NONSTANDARDBOND>
1  2  7

> <PUBCHEM_COORDINATE_TYPE>
1
5
255

$$$$
