87451
  -OEChem-08152605232D

  4  1  0     0  0  0  0  0  0999 V2000
    3.7321    0.5600    0.0000 Rb  0  3  0  0  0  0  0  0  0  0  0  0
    2.0000    0.5600    0.0000 Rb  0  3  0  0  0  0  0  0  0  0  0  0
    2.8660    0.0600    0.0000 O   0  5  0  0  0  0  0  0  0  0  0  0
    2.8660   -0.5600    0.0000 H   0  0  0  0  0  0  0  0  0  0  0  0
  3  4  1  0  0  0  0
M  CHG  3   1   1   2   1   3  -1
M  END
> <PUBCHEM_COMPOUND_CID>
87451

> <PUBCHEM_COMPOUND_CANONICALIZED>
1

> <PUBCHEM_CACTVS_COMPLEXITY>
2.8

> <PUBCHEM_CACTVS_HBOND_ACCEPTOR>
1

> <PUBCHEM_CACTVS_HBOND_DONOR>
1

> <PUBCHEM_CACTVS_ROTATABLE_BOND>
0

> <PUBCHEM_CACTVS_SUBSKEYS>
AAADcQAAIAAAAAAACAAAAAAAAAAAAAAAAAAAAAAAAAAAAAAAAAAAAAAACAAAAAAAAAAAAAAAAAAAAAAAAAAAAAAAAAAAAAAAAAAAAAAAAAAAAAAAAAAAAAAAAAAAAAAAAAAAAAAAAAAAAAAAAAAAAAAAAA==

> <PUBCHEM_IUPAC_OPENEYE_NAME>
bis(rubidium(1+));hydroxide

> <PUBCHEM_IUPAC_CAS_NAME>
bis(rubidium(1+));hydroxide

> <PUBCHEM_IUPAC_NAME_MARKUP>
bis(rubidium(1+));hydroxide

> <PUBCHEM_IUPAC_NAME>
bis(rubidium(1+));hydroxide

> <PUBCHEM_IUPAC_SYSTEMATIC_NAME>
bis(rubidium(1+));hydroxide

> <PUBCHEM_IUPAC_TRADITIONAL_NAME>
bis(rubidium(1+));hydroxide

> <PUBCHEM_IUPAC_INCHI>
InChI=1S/H2O.2Rb/h1H2;;/q;2*+1/p-1

> <PUBCHEM_IUPAC_INCHIKEY>
CWBWCLMMHLCMAM-UHFFFAOYSA-M

> <PUBCHEM_EXACT_MASS>
186.8263191

> <PUBCHEM_MOLECULAR_FORMULA>
HORb2+

> <PUBCHEM_MOLECULAR_WEIGHT>
187.943

> <PUBCHEM_SMILES>
[OH-].[Rb+].[Rb+]

> <PUBCHEM_CONNECTIVITY_SMILES>
[OH-].[Rb+].[Rb+]

> <PUBCHEM_CACTVS_TPSA>
1

> <PUBCHEM_MONOISOTOPIC_WEIGHT>
186.8263191

> <PUBCHEM_TOTAL_CHARGE>
1

> <PUBCHEM_HEAVY_ATOM_COUNT>
3

> <PUBCHEM_ATOM_DEF_STEREO_COUNT>
0

> <PUBCHEM_ATOM_UDEF_STEREO_COUNT>
0

> <PUBCHEM_BOND_DEF_STEREO_COUNT>
0

> <PUBCHEM_BOND_UDEF_STEREO_COUNT>
0

> <PUBCHEM_ISOTOPIC_ATOM_COUNT>
0

> <PUBCHEM_COMPONENT_COUNT>
3

> <PUBCHEM_CACTVS_TAUTO_COUNT>
-1

> <PUBCHEM_NONSTANDARDBOND>
1  3  6
2  3  6

> <PUBCHEM_COORDINATE_TYPE>
1
5
255

$$$$
