129628994
  -OEChem-08152607052D

  7  3  0     0  0  0  0  0  0999 V2000
    5.4641    0.5000    0.0000 Rb  0  3  0  0  0  0  0  0  0  0  0  0
    2.0000    0.5000    0.0000 Rb  0  3  0  0  0  0  0  0  0  0  0  0
    2.8660   -1.0000    0.0000 Rb  0  3  0  0  0  0  0  0  0  0  0  0
    4.5981    1.0000    0.0000 O   0  5  0  0  0  0  0  0  0  0  0  0
    2.8660    1.0000    0.0000 O   0  5  0  0  0  0  0  0  0  0  0  0
    3.7320   -0.5000    0.0000 O   0  5  0  0  0  0  0  0  0  0  0  0
    3.7320    0.5000    0.0000 B   0  0  0  0  0  0  0  0  0  0  0  0
  4  7  1  0  0  0  0
  5  7  1  0  0  0  0
  6  7  1  0  0  0  0
M  CHG  6   1   1   2   1   3   1   4  -1   5  -1   6  -1
M  END
> <PUBCHEM_COMPOUND_CID>
129628994

> <PUBCHEM_COMPOUND_CANONICALIZED>
1

> <PUBCHEM_CACTVS_COMPLEXITY>
8

> <PUBCHEM_CACTVS_HBOND_ACCEPTOR>
3

> <PUBCHEM_CACTVS_HBOND_DONOR>
0

> <PUBCHEM_CACTVS_ROTATABLE_BOND>
0

> <PUBCHEM_CACTVS_SUBSKEYS>
AAADcQIAMAAAAAAACAAAAAAAAAAAAAAAAAAAAAAAAAAAAAAAAAAIAAAAAAAAAAAAAAAAAAAAAAAAAAAAAAAAAAAAAAAAAAAAAAAAAAAAAAAAAAAAAAAAAAAAAAAAAAAAAAAAAAAAAAAAAAAAAAAAAAAAAA==

> <PUBCHEM_IUPAC_OPENEYE_NAME>
tris(rubidium(1+));borate

> <PUBCHEM_IUPAC_CAS_NAME>
tris(rubidium(1+));borate

> <PUBCHEM_IUPAC_NAME_MARKUP>
tris(rubidium(1+));borate

> <PUBCHEM_IUPAC_NAME>
tris(rubidium(1+));borate

> <PUBCHEM_IUPAC_SYSTEMATIC_NAME>
tris(rubidium(1+));borate

> <PUBCHEM_IUPAC_TRADITIONAL_NAME>
tris(rubidium(1+));borate

> <PUBCHEM_IUPAC_INCHI>
InChI=1S/BO3.3Rb/c2-1(3)4;;;/q-3;3*+1

> <PUBCHEM_IUPAC_INCHIKEY>
ZNXGTJGSXIXCLO-UHFFFAOYSA-N

> <PUBCHEM_EXACT_MASS>
315.7268090

> <PUBCHEM_MOLECULAR_FORMULA>
BO3Rb3

> <PUBCHEM_MOLECULAR_WEIGHT>
315.22

> <PUBCHEM_SMILES>
B([O-])([O-])[O-].[Rb+].[Rb+].[Rb+]

> <PUBCHEM_CONNECTIVITY_SMILES>
B([O-])([O-])[O-].[Rb+].[Rb+].[Rb+]

> <PUBCHEM_CACTVS_TPSA>
69.2

> <PUBCHEM_MONOISOTOPIC_WEIGHT>
313.7294182

> <PUBCHEM_TOTAL_CHARGE>
0

> <PUBCHEM_HEAVY_ATOM_COUNT>
7

> <PUBCHEM_ATOM_DEF_STEREO_COUNT>
0

> <PUBCHEM_ATOM_UDEF_STEREO_COUNT>
0

> <PUBCHEM_BOND_DEF_STEREO_COUNT>
0

> <PUBCHEM_BOND_UDEF_STEREO_COUNT>
0

> <PUBCHEM_ISOTOPIC_ATOM_COUNT>
0

> <PUBCHEM_COMPONENT_COUNT>
4

> <PUBCHEM_CACTVS_TAUTO_COUNT>
-1

> <PUBCHEM_COORDINATE_TYPE>
1
5
255

$$$$
