117587625
  -OEChem-08152606262D

 67 42  0     0  0  0  0  0  0999 V2000
    0.8660    9.6560    0.0000 Ru  0  0  0  0  0  0  0  0  0  0  0  0
    7.6720    9.9060    0.0000 Ru  0  1  0  0  0  0  0  0  0  0  0  0
    9.4040    9.9060    0.0000 Ru  0  1  0  0  0  0  0  0  0  0  0  0
    1.7321   10.1560    0.0000 Cl  0  5  0  0  0  0  0  0  0  0  0  0
    0.0000    9.1560    0.0000 Cl  0  5  0  0  0  0  0  0  0  0  0  0
    0.3660   10.5220    0.0000 Cl  0  5  0  0  0  0  0  0  0  0  0  0
    1.3660    8.7900    0.0000 Cl  0  5  0  0  0  0  0  0  0  0  0  0
    6.8059   10.4060    0.0000 Cl  0  5  0  0  0  0  0  0  0  0  0  0
    7.6720    8.9060    0.0000 Cl  0  5  0  0  0  0  0  0  0  0  0  0
    8.5380   10.4060    0.0000 O   0  6  0  0  0  0  0  0  0  0  0  0
   10.2700   10.4060    0.0000 O   0  6  0  0  0  0  0  0  0  0  0  0
    4.2690    3.9510    0.0000 N   0  0  0  0  0  0  0  0  0  0  0  0
    0.8660    0.6200    0.0000 N   0  0  0  0  0  0  0  0  0  0  0  0
    8.5380    3.6660    0.0000 N   0  0  0  0  0  0  0  0  0  0  0  0
    8.5380    0.7360    0.0000 N   0  0  0  0  0  0  0  0  0  0  0  0
   12.8070    3.9510    0.0000 N   0  0  0  0  0  0  0  0  0  0  0  0
    0.8660    3.5500    0.0000 N   0  0  0  0  0  0  0  0  0  0  0  0
    4.2690    6.8810    0.0000 N   0  0  0  0  0  0  0  0  0  0  0  0
    0.8660    6.4800    0.0000 N   0  0  0  0  0  0  0  0  0  0  0  0
    4.2690    9.8110    0.0000 N   0  0  0  0  0  0  0  0  0  0  0  0
    8.5380    6.5960    0.0000 N   0  0  0  0  0  0  0  0  0  0  0  0
   12.8070    9.8110    0.0000 N   0  0  0  0  0  0  0  0  0  0  0  0
   12.8070    6.8810    0.0000 N   0  0  0  0  0  0  0  0  0  0  0  0
    0.8660   13.1421    0.0000 N   0  0  0  0  0  0  0  0  0  0  0  0
    8.5380   13.0260    0.0000 N   0  0  0  0  0  0  0  0  0  0  0  0
    4.8059    4.2610    0.0000 H   0  0  0  0  0  0  0  0  0  0  0  0
    3.7321    4.2610    0.0000 H   0  0  0  0  0  0  0  0  0  0  0  0
    4.2690    3.3310    0.0000 H   0  0  0  0  0  0  0  0  0  0  0  0
    1.4030    0.9300    0.0000 H   0  0  0  0  0  0  0  0  0  0  0  0
    0.3291    0.9300    0.0000 H   0  0  0  0  0  0  0  0  0  0  0  0
    0.8660    0.0000    0.0000 H   0  0  0  0  0  0  0  0  0  0  0  0
    9.0749    3.9760    0.0000 H   0  0  0  0  0  0  0  0  0  0  0  0
    8.0010    3.9760    0.0000 H   0  0  0  0  0  0  0  0  0  0  0  0
    8.5380    3.0460    0.0000 H   0  0  0  0  0  0  0  0  0  0  0  0
    9.0749    1.0460    0.0000 H   0  0  0  0  0  0  0  0  0  0  0  0
    8.0010    1.0460    0.0000 H   0  0  0  0  0  0  0  0  0  0  0  0
    8.5380    0.1160    0.0000 H   0  0  0  0  0  0  0  0  0  0  0  0
   13.3439    4.2610    0.0000 H   0  0  0  0  0  0  0  0  0  0  0  0
   12.2700    4.2610    0.0000 H   0  0  0  0  0  0  0  0  0  0  0  0
   12.8070    3.3310    0.0000 H   0  0  0  0  0  0  0  0  0  0  0  0
    1.4030    3.8600    0.0000 H   0  0  0  0  0  0  0  0  0  0  0  0
    0.3291    3.8600    0.0000 H   0  0  0  0  0  0  0  0  0  0  0  0
    0.8660    2.9300    0.0000 H   0  0  0  0  0  0  0  0  0  0  0  0
    4.8059    7.1910    0.0000 H   0  0  0  0  0  0  0  0  0  0  0  0
    3.7321    7.1910    0.0000 H   0  0  0  0  0  0  0  0  0  0  0  0
    4.2690    6.2610    0.0000 H   0  0  0  0  0  0  0  0  0  0  0  0
    1.4030    6.7900    0.0000 H   0  0  0  0  0  0  0  0  0  0  0  0
    0.3291    6.7900    0.0000 H   0  0  0  0  0  0  0  0  0  0  0  0
    0.8660    5.8600    0.0000 H   0  0  0  0  0  0  0  0  0  0  0  0
    4.8059   10.1210    0.0000 H   0  0  0  0  0  0  0  0  0  0  0  0
    3.7321   10.1210    0.0000 H   0  0  0  0  0  0  0  0  0  0  0  0
    4.2690    9.1910    0.0000 H   0  0  0  0  0  0  0  0  0  0  0  0
    9.0749    6.9060    0.0000 H   0  0  0  0  0  0  0  0  0  0  0  0
    8.0010    6.9060    0.0000 H   0  0  0  0  0  0  0  0  0  0  0  0
    8.5380    5.9760    0.0000 H   0  0  0  0  0  0  0  0  0  0  0  0
   13.3439   10.1210    0.0000 H   0  0  0  0  0  0  0  0  0  0  0  0
   12.2700   10.1210    0.0000 H   0  0  0  0  0  0  0  0  0  0  0  0
   12.8070    9.1910    0.0000 H   0  0  0  0  0  0  0  0  0  0  0  0
   13.3439    7.1910    0.0000 H   0  0  0  0  0  0  0  0  0  0  0  0
   12.2700    7.1910    0.0000 H   0  0  0  0  0  0  0  0  0  0  0  0
   12.8070    6.2610    0.0000 H   0  0  0  0  0  0  0  0  0  0  0  0
    1.4030   13.4521    0.0000 H   0  0  0  0  0  0  0  0  0  0  0  0
    0.3291   13.4521    0.0000 H   0  0  0  0  0  0  0  0  0  0  0  0
    0.8660   12.5221    0.0000 H   0  0  0  0  0  0  0  0  0  0  0  0
    9.0749   13.3360    0.0000 H   0  0  0  0  0  0  0  0  0  0  0  0
    8.0010   13.3360    0.0000 H   0  0  0  0  0  0  0  0  0  0  0  0
    8.5380   12.4060    0.0000 H   0  0  0  0  0  0  0  0  0  0  0  0
 12 26  1  0  0  0  0
 12 27  1  0  0  0  0
 12 28  1  0  0  0  0
 13 29  1  0  0  0  0
 13 30  1  0  0  0  0
 13 31  1  0  0  0  0
 14 32  1  0  0  0  0
 14 33  1  0  0  0  0
 14 34  1  0  0  0  0
 15 35  1  0  0  0  0
 15 36  1  0  0  0  0
 15 37  1  0  0  0  0
 16 38  1  0  0  0  0
 16 39  1  0  0  0  0
 16 40  1  0  0  0  0
 17 41  1  0  0  0  0
 17 42  1  0  0  0  0
 17 43  1  0  0  0  0
 18 44  1  0  0  0  0
 18 45  1  0  0  0  0
 18 46  1  0  0  0  0
 19 47  1  0  0  0  0
 19 48  1  0  0  0  0
 19 49  1  0  0  0  0
 20 50  1  0  0  0  0
 20 51  1  0  0  0  0
 20 52  1  0  0  0  0
 21 53  1  0  0  0  0
 21 54  1  0  0  0  0
 21 55  1  0  0  0  0
 22 56  1  0  0  0  0
 22 57  1  0  0  0  0
 22 58  1  0  0  0  0
 23 59  1  0  0  0  0
 23 60  1  0  0  0  0
 23 61  1  0  0  0  0
 24 62  1  0  0  0  0
 24 63  1  0  0  0  0
 24 64  1  0  0  0  0
 25 65  1  0  0  0  0
 25 66  1  0  0  0  0
 25 67  1  0  0  0  0
M  CHG  8   1   4   2   3   3   3   4  -1   5  -1   6  -1   7  -1   8  -1
M  CHG  3   9  -1  10  -2  11  -2
M  END
> <PUBCHEM_COMPOUND_CID>
117587625

> <PUBCHEM_COMPOUND_CANONICALIZED>
1

> <PUBCHEM_CACTVS_COMPLEXITY>
0

> <PUBCHEM_CACTVS_HBOND_ACCEPTOR>
22

> <PUBCHEM_CACTVS_HBOND_DONOR>
14

> <PUBCHEM_CACTVS_ROTATABLE_BOND>
0

> <PUBCHEM_CACTVS_SUBSKEYS>
AAADcfAD8AAHAAAAACAAAAAAAAAAAAAAAAAAAAAAAAAAAAAAAAAAAAAQAAAAAAAAAAAAAAAAAAAAAAAAAAAAAAAAAAAAAAAAAAAAAAAAAAAAAAAAAAAAAAAAAAAAAAAAAAAAAAAAAAAAAAAAAAAAAAAAAA==

> <PUBCHEM_IUPAC_OPENEYE_NAME>
ammonia;bis(oxygen(2-));bis(ruthenium(3+));ruthenium(4+);hexachloride

> <PUBCHEM_IUPAC_CAS_NAME>
ammonia;bis(oxygen(2-));bis(ruthenium(3+));ruthenium(4+);hexachloride

> <PUBCHEM_IUPAC_NAME_MARKUP>
azane;bis(oxygen(2-));bis(ruthenium(3+));ruthenium(4+);hexachloride

> <PUBCHEM_IUPAC_NAME>
azane;bis(oxygen(2-));bis(ruthenium(3+));ruthenium(4+);hexachloride

> <PUBCHEM_IUPAC_SYSTEMATIC_NAME>
azane;bis(oxygen(2-));bis(ruthenium(3+));ruthenium(4+);hexachloride

> <PUBCHEM_IUPAC_TRADITIONAL_NAME>
ammonia;bis(oxygen(2-));bis(ruthenium(3+));ruthenium(4+);hexachloride

> <PUBCHEM_IUPAC_INCHI>
InChI=1S/6ClH.14H3N.2O.3Ru/h6*1H;14*1H3;;;;;/q;;;;;;;;;;;;;;;;;;;;2*-2;2*+3;+4/p-6

> <PUBCHEM_IUPAC_INCHIKEY>
GOOXRYWLNNXLFL-UHFFFAOYSA-H

> <PUBCHEM_EXACT_MASS>
788.88702

> <PUBCHEM_MOLECULAR_FORMULA>
Cl6H42N14O2Ru3

> <PUBCHEM_MOLECULAR_WEIGHT>
786.3

> <PUBCHEM_SMILES>
N.N.N.N.N.N.N.N.N.N.N.N.N.N.[O-2].[O-2].[Cl-].[Cl-].[Cl-].[Cl-].[Cl-].[Cl-].[Ru+3].[Ru+3].[Ru+4]

> <PUBCHEM_CONNECTIVITY_SMILES>
N.N.N.N.N.N.N.N.N.N.N.N.N.N.[O-2].[O-2].[Cl-].[Cl-].[Cl-].[Cl-].[Cl-].[Cl-].[Ru+3].[Ru+3].[Ru+4]

> <PUBCHEM_CACTVS_TPSA>
16

> <PUBCHEM_MONOISOTOPIC_WEIGHT>
785.88765

> <PUBCHEM_TOTAL_CHARGE>
0

> <PUBCHEM_HEAVY_ATOM_COUNT>
25

> <PUBCHEM_ATOM_DEF_STEREO_COUNT>
0

> <PUBCHEM_ATOM_UDEF_STEREO_COUNT>
0

> <PUBCHEM_BOND_DEF_STEREO_COUNT>
0

> <PUBCHEM_BOND_UDEF_STEREO_COUNT>
0

> <PUBCHEM_ISOTOPIC_ATOM_COUNT>
0

> <PUBCHEM_COMPONENT_COUNT>
25

> <PUBCHEM_CACTVS_TAUTO_COUNT>
-1

> <PUBCHEM_COORDINATE_TYPE>
1
5
255

$$$$
