119079
  -OEChem-08152604312D

  5  4  0     0  0  0  0  0  0999 V2000
    2.7071    0.0000    0.0000 Ru  0  0  0  0  0  0  0  0  0  0  0  0
    3.4142    0.7071    0.0000 O   0  0  0  0  0  0  0  0  0  0  0  0
    2.0000   -0.7071    0.0000 O   0  0  0  0  0  0  0  0  0  0  0  0
    2.0000    0.7071    0.0000 O   0  0  0  0  0  0  0  0  0  0  0  0
    3.4142   -0.7071    0.0000 O   0  0  0  0  0  0  0  0  0  0  0  0
  1  2  2  0  0  0  0
  1  3  2  0  0  0  0
  1  4  2  0  0  0  0
  1  5  2  0  0  0  0
M  END
> <PUBCHEM_COMPOUND_CID>
119079

> <PUBCHEM_COMPOUND_CANONICALIZED>
1

> <PUBCHEM_CACTVS_COMPLEXITY>
138

> <PUBCHEM_CACTVS_HBOND_ACCEPTOR>
4

> <PUBCHEM_CACTVS_HBOND_DONOR>
0

> <PUBCHEM_CACTVS_ROTATABLE_BOND>
0

> <PUBCHEM_CACTVS_SUBSKEYS>
AAADcQAAOAAAAAAAACAAAAAAAAAAAAAAAAAAAAAAAAAAAAAAAAAAAAAAAAAAAAAAAAAAAAAAAAAAAAAAAAAAAAAAAAAAAAAAAAAAAAAAAAAAAAAAAAAAAAAAAAAAAAAAAAAAAAAAAAAAAAAAAAAAAAAAAA==

> <PUBCHEM_IUPAC_OPENEYE_NAME>
tetraoxoruthenium

> <PUBCHEM_IUPAC_CAS_NAME>
tetraoxoruthenium

> <PUBCHEM_IUPAC_NAME_MARKUP>
tetraoxoruthenium

> <PUBCHEM_IUPAC_NAME>
tetraoxoruthenium

> <PUBCHEM_IUPAC_SYSTEMATIC_NAME>
tetrakis(oxidanylidene)ruthenium

> <PUBCHEM_IUPAC_TRADITIONAL_NAME>
tetraketoruthenium

> <PUBCHEM_IUPAC_INCHI>
InChI=1S/4O.Ru

> <PUBCHEM_IUPAC_INCHIKEY>
GJFMDWMEOCWXGJ-UHFFFAOYSA-N

> <PUBCHEM_EXACT_MASS>
165.883999

> <PUBCHEM_MOLECULAR_FORMULA>
O4Ru

> <PUBCHEM_MOLECULAR_WEIGHT>
165.1

> <PUBCHEM_SMILES>
O=[Ru](=O)(=O)=O

> <PUBCHEM_CONNECTIVITY_SMILES>
O=[Ru](=O)(=O)=O

> <PUBCHEM_CACTVS_TPSA>
68.3

> <PUBCHEM_MONOISOTOPIC_WEIGHT>
165.883999

> <PUBCHEM_TOTAL_CHARGE>
0

> <PUBCHEM_HEAVY_ATOM_COUNT>
5

> <PUBCHEM_ATOM_DEF_STEREO_COUNT>
0

> <PUBCHEM_ATOM_UDEF_STEREO_COUNT>
0

> <PUBCHEM_BOND_DEF_STEREO_COUNT>
0

> <PUBCHEM_BOND_UDEF_STEREO_COUNT>
0

> <PUBCHEM_ISOTOPIC_ATOM_COUNT>
0

> <PUBCHEM_COMPONENT_COUNT>
1

> <PUBCHEM_CACTVS_TAUTO_COUNT>
-1

> <PUBCHEM_COORDINATE_TYPE>
1
5
255

$$$$
