16211523
  -OEChem-08152607012D

  6  4  0     0  0  0  0  0  0999 V2000
    0.8660    0.5000    0.0000 Ru  0  0  0  0  0  0  0  0  0  0  0  0
    1.7321    1.0000    0.0000 O   0  0  0  0  0  0  0  0  0  0  0  0
    0.0000    0.0000    0.0000 O   0  0  0  0  0  0  0  0  0  0  0  0
    0.8660    3.0000    0.0000 O   0  0  0  0  0  0  0  0  0  0  0  0
    1.4030    3.3100    0.0000 H   0  0  0  0  0  0  0  0  0  0  0  0
    0.3291    3.3100    0.0000 H   0  0  0  0  0  0  0  0  0  0  0  0
  1  2  2  0  0  0  0
  1  3  2  0  0  0  0
  4  5  1  0  0  0  0
  4  6  1  0  0  0  0
M  END
> <PUBCHEM_COMPOUND_CID>
16211523

> <PUBCHEM_COMPOUND_CANONICALIZED>
1

> <PUBCHEM_CACTVS_COMPLEXITY>
18.3

> <PUBCHEM_CACTVS_HBOND_ACCEPTOR>
3

> <PUBCHEM_CACTVS_HBOND_DONOR>
1

> <PUBCHEM_CACTVS_ROTATABLE_BOND>
0

> <PUBCHEM_CACTVS_SUBSKEYS>
AAADcQAAMAAAAAAAACAAAAAAAAAAAAAAAAAAAAAAAAAAAAAAAAAAAAAACAAAAAAAAAAAAAAAAAAAAAAAAAAAAAAAAAAAAAAAAAAAAAAAAAAAAAAAAAAAAAAAAAAAAAAAAAAAAAAAAAAAAAAAAAAAAAAAAA==

> <PUBCHEM_IUPAC_OPENEYE_NAME>
dioxoruthenium;hydrate

> <PUBCHEM_IUPAC_CAS_NAME>
dioxoruthenium;hydrate

> <PUBCHEM_IUPAC_NAME_MARKUP>
dioxoruthenium;hydrate

> <PUBCHEM_IUPAC_NAME>
dioxoruthenium;hydrate

> <PUBCHEM_IUPAC_SYSTEMATIC_NAME>
bis(oxidanylidene)ruthenium;hydrate

> <PUBCHEM_IUPAC_TRADITIONAL_NAME>
diketoruthenium;hydrate

> <PUBCHEM_IUPAC_INCHI>
InChI=1S/H2O.2O.Ru/h1H2;;;

> <PUBCHEM_IUPAC_INCHIKEY>
FGEKTVAHFDQHBU-UHFFFAOYSA-N

> <PUBCHEM_EXACT_MASS>
151.904734

> <PUBCHEM_MOLECULAR_FORMULA>
H2O3Ru

> <PUBCHEM_MOLECULAR_WEIGHT>
151.1

> <PUBCHEM_SMILES>
O.O=[Ru]=O

> <PUBCHEM_CONNECTIVITY_SMILES>
O.O=[Ru]=O

> <PUBCHEM_CACTVS_TPSA>
35.1

> <PUBCHEM_MONOISOTOPIC_WEIGHT>
151.904734

> <PUBCHEM_TOTAL_CHARGE>
0

> <PUBCHEM_HEAVY_ATOM_COUNT>
4

> <PUBCHEM_ATOM_DEF_STEREO_COUNT>
0

> <PUBCHEM_ATOM_UDEF_STEREO_COUNT>
0

> <PUBCHEM_BOND_DEF_STEREO_COUNT>
0

> <PUBCHEM_BOND_UDEF_STEREO_COUNT>
0

> <PUBCHEM_ISOTOPIC_ATOM_COUNT>
0

> <PUBCHEM_COMPONENT_COUNT>
2

> <PUBCHEM_CACTVS_TAUTO_COUNT>
-1

> <PUBCHEM_COORDINATE_TYPE>
1
5
255

$$$$
