11833842
  -OEChem-08152607232D

  3  2  0     0  0  0  0  0  0999 V2000
    2.8660   -0.2500    0.0000 Sm  0  0  0  0  0  0  0  0  0  0  0  0
    3.7320    0.2500    0.0000 Br  0  0  0  0  0  0  0  0  0  0  0  0
    2.0000    0.2500    0.0000 Br  0  0  0  0  0  0  0  0  0  0  0  0
  1  2  1  0  0  0  0
  1  3  1  0  0  0  0
M  END
> <PUBCHEM_COMPOUND_CID>
11833842

> <PUBCHEM_COMPOUND_CANONICALIZED>
1

> <PUBCHEM_CACTVS_COMPLEXITY>
2.8

> <PUBCHEM_CACTVS_HBOND_ACCEPTOR>
0

> <PUBCHEM_CACTVS_HBOND_DONOR>
0

> <PUBCHEM_CACTVS_ROTATABLE_BOND>
0

> <PUBCHEM_CACTVS_SUBSKEYS>
AAADcQAAAAAAGAAAAAAAAACAAAAAAAAAAAAAAAAAAAAAAAAAAAAAAAAAAAAAAAAAAAAAAAAAAAAAAAAAAAAAAAAAAAAAAAAAAAAAAAAAAAAAAAAAAAAAAAAAAAAAAAAAAAAAAAAAAAAAAAAAAAAAAAAAAA==

> <PUBCHEM_IUPAC_OPENEYE_NAME>
dibromosamarium

> <PUBCHEM_IUPAC_CAS_NAME>
dibromosamarium

> <PUBCHEM_IUPAC_NAME_MARKUP>
dibromosamarium

> <PUBCHEM_IUPAC_NAME>
dibromosamarium

> <PUBCHEM_IUPAC_SYSTEMATIC_NAME>
bis(bromanyl)samarium

> <PUBCHEM_IUPAC_TRADITIONAL_NAME>
dibromosamarium

> <PUBCHEM_IUPAC_INCHI>
InChI=1S/2BrH.Sm/h2*1H;/q;;+2/p-2

> <PUBCHEM_IUPAC_INCHIKEY>
AEPYKHCUOAUXAI-UHFFFAOYSA-L

> <PUBCHEM_EXACT_MASS>
311.75436

> <PUBCHEM_MOLECULAR_FORMULA>
Br2Sm

> <PUBCHEM_MOLECULAR_WEIGHT>
310.2

> <PUBCHEM_SMILES>
Br[Sm]Br

> <PUBCHEM_CONNECTIVITY_SMILES>
Br[Sm]Br

> <PUBCHEM_CACTVS_TPSA>
0

> <PUBCHEM_MONOISOTOPIC_WEIGHT>
309.75641

> <PUBCHEM_TOTAL_CHARGE>
0

> <PUBCHEM_HEAVY_ATOM_COUNT>
3

> <PUBCHEM_ATOM_DEF_STEREO_COUNT>
0

> <PUBCHEM_ATOM_UDEF_STEREO_COUNT>
0

> <PUBCHEM_BOND_DEF_STEREO_COUNT>
0

> <PUBCHEM_BOND_UDEF_STEREO_COUNT>
0

> <PUBCHEM_ISOTOPIC_ATOM_COUNT>
0

> <PUBCHEM_COMPONENT_COUNT>
1

> <PUBCHEM_CACTVS_TAUTO_COUNT>
-1

> <PUBCHEM_COORDINATE_TYPE>
1
5
255

$$$$
