10125161
  -OEChem-08152606282D

  2  0  0     0  0  0  0  0  0999 V2000
    0.0000    2.5000    0.0000 Sm  0  0  0  0  0  0  0  0  0  0  0  0
    0.0000    0.0000    0.0000 Co  0  0  0  0  0  0  0  0  0  0  0  0
M  END
> <PUBCHEM_COMPOUND_CID>
10125161

> <PUBCHEM_COMPOUND_CANONICALIZED>
1

> <PUBCHEM_CACTVS_COMPLEXITY>
0

> <PUBCHEM_CACTVS_HBOND_ACCEPTOR>
0

> <PUBCHEM_CACTVS_HBOND_DONOR>
0

> <PUBCHEM_CACTVS_ROTATABLE_BOND>
0

> <PUBCHEM_CACTVS_SUBSKEYS>
AAADcQAAAAAAAAAQAAAAAACAAAAAAAAAAAAAAAAAAAAAAAAAAAAAAAAAAAAAAAAAAAAAAAAAAAAAAAAAAAAAAAAAAAAAAAAAAAAAAAAAAAAAAAAAAAAAAAAAAAAAAAAAAAAAAAAAAAAAAAAAAAAAAAAAAA==

> <PUBCHEM_IUPAC_OPENEYE_NAME>
cobalt;samarium

> <PUBCHEM_IUPAC_CAS_NAME>
cobalt;samarium

> <PUBCHEM_IUPAC_NAME_MARKUP>
cobalt;samarium

> <PUBCHEM_IUPAC_NAME>
cobalt;samarium

> <PUBCHEM_IUPAC_SYSTEMATIC_NAME>
cobalt;samarium

> <PUBCHEM_IUPAC_TRADITIONAL_NAME>
cobalt;samarium

> <PUBCHEM_IUPAC_INCHI>
InChI=1S/Co.Sm

> <PUBCHEM_IUPAC_INCHIKEY>
KPLQYGBQNPPQGA-UHFFFAOYSA-N

> <PUBCHEM_EXACT_MASS>
210.85293

> <PUBCHEM_MOLECULAR_FORMULA>
CoSm

> <PUBCHEM_MOLECULAR_WEIGHT>
209.3

> <PUBCHEM_SMILES>
[Co].[Sm]

> <PUBCHEM_CONNECTIVITY_SMILES>
[Co].[Sm]

> <PUBCHEM_CACTVS_TPSA>
0

> <PUBCHEM_MONOISOTOPIC_WEIGHT>
210.85293

> <PUBCHEM_TOTAL_CHARGE>
0

> <PUBCHEM_HEAVY_ATOM_COUNT>
2

> <PUBCHEM_ATOM_DEF_STEREO_COUNT>
0

> <PUBCHEM_ATOM_UDEF_STEREO_COUNT>
0

> <PUBCHEM_BOND_DEF_STEREO_COUNT>
0

> <PUBCHEM_BOND_UDEF_STEREO_COUNT>
0

> <PUBCHEM_ISOTOPIC_ATOM_COUNT>
0

> <PUBCHEM_COMPONENT_COUNT>
2

> <PUBCHEM_CACTVS_TAUTO_COUNT>
-1

> <PUBCHEM_COORDINATE_TYPE>
1
5
255

$$$$
