9801329
  -OEChem-08152607062D

  3  0  0     0  0  0  0  0  0999 V2000
    2.5000    2.5000    0.0000 Sm  0  0  0  0  0  0  0  0  0  0  0  0
    0.0000    1.2500    0.0000 I   0  5  0  0  0  0  0  0  0  0  0  0
    2.5000    0.0000    0.0000 I   0  5  0  0  0  0  0  0  0  0  0  0
M  CHG  2   2  -1   3  -1
M  END
> <PUBCHEM_COMPOUND_CID>
9801329

> <PUBCHEM_COMPOUND_CANONICALIZED>
1

> <PUBCHEM_CACTVS_COMPLEXITY>
0

> <PUBCHEM_CACTVS_HBOND_ACCEPTOR>
2

> <PUBCHEM_CACTVS_HBOND_DONOR>
0

> <PUBCHEM_CACTVS_ROTATABLE_BOND>
0

> <PUBCHEM_CACTVS_SUBSKEYS>
AAADcQAAAAAAAwAAAAAAAACAAAAAAAAAAAAAAAAAAAAAAAAAAAAAAAAAAAAAAAAAAAAAAAAAAAAAAAAAAAAAAAAAAAAAAAAAAAAAAAAAAAAAAAAAAAAAAAAAAAAAAAAAAAAAAAAAAAAAAAAAAAAAAAAAAA==

> <PUBCHEM_IUPAC_OPENEYE_NAME>
samarium diiodide

> <PUBCHEM_IUPAC_CAS_NAME>
samarium diiodide

> <PUBCHEM_IUPAC_NAME_MARKUP>
samarium diiodide

> <PUBCHEM_IUPAC_NAME>
samarium diiodide

> <PUBCHEM_IUPAC_SYSTEMATIC_NAME>
samarium diiodide

> <PUBCHEM_IUPAC_TRADITIONAL_NAME>
samarium diiodide

> <PUBCHEM_IUPAC_INCHI>
InChI=1S/2HI.Sm/h2*1H;/p-2

> <PUBCHEM_IUPAC_INCHIKEY>
IXYRYFKRXLLFRG-UHFFFAOYSA-L

> <PUBCHEM_EXACT_MASS>
405.72868

> <PUBCHEM_MOLECULAR_FORMULA>
I2Sm-2

> <PUBCHEM_MOLECULAR_WEIGHT>
404.2

> <PUBCHEM_SMILES>
[I-].[I-].[Sm]

> <PUBCHEM_CONNECTIVITY_SMILES>
[I-].[I-].[Sm]

> <PUBCHEM_CACTVS_TPSA>
0

> <PUBCHEM_MONOISOTOPIC_WEIGHT>
405.72868

> <PUBCHEM_TOTAL_CHARGE>
-2

> <PUBCHEM_HEAVY_ATOM_COUNT>
3

> <PUBCHEM_ATOM_DEF_STEREO_COUNT>
0

> <PUBCHEM_ATOM_UDEF_STEREO_COUNT>
0

> <PUBCHEM_BOND_DEF_STEREO_COUNT>
0

> <PUBCHEM_BOND_UDEF_STEREO_COUNT>
0

> <PUBCHEM_ISOTOPIC_ATOM_COUNT>
0

> <PUBCHEM_COMPONENT_COUNT>
3

> <PUBCHEM_CACTVS_TAUTO_COUNT>
-1

> <PUBCHEM_COORDINATE_TYPE>
1
5
255

$$$$
