57451379
  -OEChem-08152607342D

 10  8  0     0  0  0  0  0  0999 V2000
    1.3175    0.0000    0.0000 Sc  0  0  0  0  0  0  0  0  0  0  0  0
    1.4030    3.3660    0.0000 S   0  0  0  0  0  0  0  0  0  0  0  0
    3.1350    4.3660    0.0000 F   0  0  0  0  0  0  0  0  0  0  0  0
    2.7690    3.0000    0.0000 F   0  0  0  0  0  0  0  0  0  0  0  0
    1.7690    4.7320    0.0000 F   0  0  0  0  0  0  0  0  0  0  0  0
    0.5369    2.8660    0.0000 O   0  0  0  0  0  0  0  0  0  0  0  0
    0.9030    4.2320    0.0000 O   0  0  0  0  0  0  0  0  0  0  0  0
    1.9030    2.5000    0.0000 O   0  0  0  0  0  0  0  0  0  0  0  0
    2.2690    3.8660    0.0000 C   0  0  0  0  0  0  0  0  0  0  0  0
    0.0000    3.1760    0.0000 H   0  0  0  0  0  0  0  0  0  0  0  0
  2  6  1  0  0  0  0
  2  7  2  0  0  0  0
  2  8  2  0  0  0  0
  2  9  1  0  0  0  0
  3  9  1  0  0  0  0
  4  9  1  0  0  0  0
  5  9  1  0  0  0  0
  6 10  1  0  0  0  0
M  END
> <PUBCHEM_COMPOUND_CID>
57451379

> <PUBCHEM_COMPOUND_CANONICALIZED>
1

> <PUBCHEM_CACTVS_COMPLEXITY>
158

> <PUBCHEM_CACTVS_HBOND_ACCEPTOR>
6

> <PUBCHEM_CACTVS_HBOND_DONOR>
1

> <PUBCHEM_CACTVS_ROTATABLE_BOND>
0

> <PUBCHEM_CACTVS_SUBSKEYS>
AAADcQAAMYBAAAQAAAAAAAAAAAAAAAAAAAAAAAAAAAAAAAAAAAAAAQQACAAAAAAAABAAAAAAAIIAAAAAAHAAAAAAAAAAAAAAAAAAAAAAAAAAAAAAAAAAAAAAAAAAAAAAAAAAAAAAAAAAAAAAAAAAAAAAAA==

> <PUBCHEM_IUPAC_OPENEYE_NAME>
scandium;trifluoromethanesulfonic acid

> <PUBCHEM_IUPAC_CAS_NAME>
scandium;trifluoromethanesulfonic acid

> <PUBCHEM_IUPAC_NAME_MARKUP>
scandium;trifluoromethanesulfonic acid

> <PUBCHEM_IUPAC_NAME>
scandium;trifluoromethanesulfonic acid

> <PUBCHEM_IUPAC_SYSTEMATIC_NAME>
scandium;tris(fluoranyl)methanesulfonic acid

> <PUBCHEM_IUPAC_TRADITIONAL_NAME>
scandium;triflic acid

> <PUBCHEM_IUPAC_INCHI>
InChI=1S/CHF3O3S.Sc/c2-1(3,4)8(5,6)7;/h(H,5,6,7);

> <PUBCHEM_IUPAC_INCHIKEY>
QUJLPICXDXFRSN-UHFFFAOYSA-N

> <PUBCHEM_EXACT_MASS>
194.915757

> <PUBCHEM_MOLECULAR_FORMULA>
CHF3O3SSc

> <PUBCHEM_MOLECULAR_WEIGHT>
195.04

> <PUBCHEM_SMILES>
C(F)(F)(F)S(=O)(=O)O.[Sc]

> <PUBCHEM_CONNECTIVITY_SMILES>
C(F)(F)(F)S(=O)(=O)O.[Sc]

> <PUBCHEM_CACTVS_TPSA>
62.8

> <PUBCHEM_MONOISOTOPIC_WEIGHT>
194.915757

> <PUBCHEM_TOTAL_CHARGE>
0

> <PUBCHEM_HEAVY_ATOM_COUNT>
9

> <PUBCHEM_ATOM_DEF_STEREO_COUNT>
0

> <PUBCHEM_ATOM_UDEF_STEREO_COUNT>
0

> <PUBCHEM_BOND_DEF_STEREO_COUNT>
0

> <PUBCHEM_BOND_UDEF_STEREO_COUNT>
0

> <PUBCHEM_ISOTOPIC_ATOM_COUNT>
0

> <PUBCHEM_COMPONENT_COUNT>
2

> <PUBCHEM_CACTVS_TAUTO_COUNT>
-1

> <PUBCHEM_COORDINATE_TYPE>
1
5
255

$$$$
