129628291
  -OEChem-08152605302D

  8  6  0     0  0  0  0  0  0999 V2000
    4.0004   -1.0985    0.0000 Sc  0  0  0  0  0  0  0  0  0  0  0  0
    3.5226    0.8500    0.0000 O   0  0  0  0  0  0  0  0  0  0  0  0
    2.5826   -1.1749    0.0000 O   0  0  0  0  0  0  0  0  0  0  0  0
    5.3994   -1.0897    0.0000 O   0  0  0  0  0  0  0  0  0  0  0  0
    4.2592   -0.1326    0.0000 B   0  0  0  0  0  0  0  0  0  0  0  0
    3.2126    1.3869    0.0000 H   0  0  0  0  0  0  0  0  0  0  0  0
    2.0000   -1.3869    0.0000 H   0  0  0  0  0  0  0  0  0  0  0  0
    5.9982   -1.2502    0.0000 H   0  0  0  0  0  0  0  0  0  0  0  0
  2  5  1  0  0  0  0
  2  6  1  0  0  0  0
  3  5  1  0  0  0  0
  3  7  1  0  0  0  0
  4  5  1  0  0  0  0
  4  8  1  0  0  0  0
M  END
> <PUBCHEM_COMPOUND_CID>
129628291

> <PUBCHEM_COMPOUND_CANONICALIZED>
1

> <PUBCHEM_CACTVS_COMPLEXITY>
11.6

> <PUBCHEM_CACTVS_HBOND_ACCEPTOR>
3

> <PUBCHEM_CACTVS_HBOND_DONOR>
3

> <PUBCHEM_CACTVS_ROTATABLE_BOND>
0

> <PUBCHEM_CACTVS_SUBSKEYS>
AAADcQIAMAAAAAQAAAAAAAAAAABIkAAAAAAAAAAAAAAAAAAAAAAIAAAACAAAAAAAAAAAAAAAAAAAAAAAAAAAAAAAAAAAAAAAAAAAAAAAAAAAAAAAAAAAAAAAAAAAAAAAAAAAAAAAAAAAAAAAAAAAAAAAAA==

> <PUBCHEM_IUPAC_OPENEYE_NAME>
boric acid;scandium

> <PUBCHEM_IUPAC_CAS_NAME>
boric acid;scandium

> <PUBCHEM_IUPAC_NAME_MARKUP>
boric acid;scandium

> <PUBCHEM_IUPAC_NAME>
boric acid;scandium

> <PUBCHEM_IUPAC_SYSTEMATIC_NAME>
boric acid;scandium

> <PUBCHEM_IUPAC_TRADITIONAL_NAME>
boric acid;scandium

> <PUBCHEM_IUPAC_INCHI>
InChI=1S/BH3O3.Sc/c2-1(3)4;/h2-4H;

> <PUBCHEM_IUPAC_INCHIKEY>
MZNMMWTZRCSIPY-UHFFFAOYSA-N

> <PUBCHEM_EXACT_MASS>
106.973431

> <PUBCHEM_MOLECULAR_FORMULA>
BH3O3Sc

> <PUBCHEM_MOLECULAR_WEIGHT>
106.79

> <PUBCHEM_SMILES>
B(O)(O)O.[Sc]

> <PUBCHEM_CONNECTIVITY_SMILES>
B(O)(O)O.[Sc]

> <PUBCHEM_CACTVS_TPSA>
60.7

> <PUBCHEM_MONOISOTOPIC_WEIGHT>
106.973431

> <PUBCHEM_TOTAL_CHARGE>
0

> <PUBCHEM_HEAVY_ATOM_COUNT>
5

> <PUBCHEM_ATOM_DEF_STEREO_COUNT>
0

> <PUBCHEM_ATOM_UDEF_STEREO_COUNT>
0

> <PUBCHEM_BOND_DEF_STEREO_COUNT>
0

> <PUBCHEM_BOND_UDEF_STEREO_COUNT>
0

> <PUBCHEM_ISOTOPIC_ATOM_COUNT>
0

> <PUBCHEM_COMPONENT_COUNT>
2

> <PUBCHEM_CACTVS_TAUTO_COUNT>
-1

> <PUBCHEM_NONSTANDARDBOND>
1  2  6
1  3  6
1  4  6

> <PUBCHEM_COORDINATE_TYPE>
1
5
255

$$$$
