66206
  -OEChem-08152605222D

  4  3  0     0  0  0  0  0  0999 V2000
    2.8660   -0.2500    0.0000 Se  0  0  0  0  0  0  0  0  0  0  0  0
    3.7320    0.2500    0.0000 Se  0  0  0  0  0  0  0  0  0  0  0  0
    2.0000    0.2500    0.0000 Cl  0  0  0  0  0  0  0  0  0  0  0  0
    4.5981   -0.2500    0.0000 Cl  0  0  0  0  0  0  0  0  0  0  0  0
  1  2  1  0  0  0  0
  1  3  1  0  0  0  0
  2  4  1  0  0  0  0
M  END
> <PUBCHEM_COMPOUND_CID>
66206

> <PUBCHEM_COMPOUND_CANONICALIZED>
1

> <PUBCHEM_CACTVS_COMPLEXITY>
6

> <PUBCHEM_CACTVS_HBOND_ACCEPTOR>
0

> <PUBCHEM_CACTVS_HBOND_DONOR>
0

> <PUBCHEM_CACTVS_ROTATABLE_BOND>
0

> <PUBCHEM_CACTVS_SUBSKEYS>
AAADcQAAAAAGAAAAIAAAAAAAAAAAAAAAAAAAAAAAAAAAAAAAAAAAAAAAAAAAAAAAAAAAAAAAAAAAAAAAAAAAAAAAAAAAAAAAAAAAAAAAAAAAAAAAAAAAAAAAAAAAAAAAAAAAAAAAAAAAAAAAAAAAAAAAAA==

> <PUBCHEM_IUPAC_OPENEYE_NAME>
chloroselanyl selenohypochlorite

> <PUBCHEM_IUPAC_CAS_NAME>
selenohypochlorous acid (chloroseleno) ester

> <PUBCHEM_IUPAC_NAME_MARKUP>
chloroselanyl selenohypochlorite

> <PUBCHEM_IUPAC_NAME>
chloroselanyl selenohypochlorite

> <PUBCHEM_IUPAC_SYSTEMATIC_NAME>
chloranylselanyl selenohypochlorite

> <PUBCHEM_IUPAC_TRADITIONAL_NAME>
selenohypochlorous acid (chloroseleno) ester

> <PUBCHEM_IUPAC_INCHI>
InChI=1S/Cl2Se2/c1-3-4-2

> <PUBCHEM_IUPAC_INCHIKEY>
VIEXQFHKRAHTQS-UHFFFAOYSA-N

> <PUBCHEM_EXACT_MASS>
229.77075

> <PUBCHEM_MOLECULAR_FORMULA>
Cl2Se2

> <PUBCHEM_MOLECULAR_WEIGHT>
228.8

> <PUBCHEM_SMILES>
Cl[Se][Se]Cl

> <PUBCHEM_CONNECTIVITY_SMILES>
Cl[Se][Se]Cl

> <PUBCHEM_CACTVS_TPSA>
0

> <PUBCHEM_MONOISOTOPIC_WEIGHT>
229.77075

> <PUBCHEM_TOTAL_CHARGE>
0

> <PUBCHEM_HEAVY_ATOM_COUNT>
4

> <PUBCHEM_ATOM_DEF_STEREO_COUNT>
0

> <PUBCHEM_ATOM_UDEF_STEREO_COUNT>
0

> <PUBCHEM_BOND_DEF_STEREO_COUNT>
0

> <PUBCHEM_BOND_UDEF_STEREO_COUNT>
0

> <PUBCHEM_ISOTOPIC_ATOM_COUNT>
0

> <PUBCHEM_COMPONENT_COUNT>
1

> <PUBCHEM_CACTVS_TAUTO_COUNT>
-1

> <PUBCHEM_COORDINATE_TYPE>
1
5
255

$$$$
