159687
  -OEChem-08152604282D

 11  8  0     0  0  0  0  0  0999 V2000
    0.0000    2.4030    0.0000 Zn  0  0  0  0  0  0  0  0  0  0  0  0
    3.6530    0.0000    0.0000 Zn  0  0  0  0  0  0  0  0  0  0  0  0
    3.9030    3.9030    0.0000 Si  0  0  0  0  0  0  0  0  0  0  0  0
    4.7690    4.4030    0.0000 O   0  0  0  0  0  0  0  0  0  0  0  0
    3.0369    3.4030    0.0000 O   0  0  0  0  0  0  0  0  0  0  0  0
    3.4030    4.7690    0.0000 O   0  0  0  0  0  0  0  0  0  0  0  0
    4.4030    3.0369    0.0000 O   0  0  0  0  0  0  0  0  0  0  0  0
    5.3059    4.0930    0.0000 H   0  0  0  0  0  0  0  0  0  0  0  0
    2.5000    3.7130    0.0000 H   0  0  0  0  0  0  0  0  0  0  0  0
    3.7130    5.3059    0.0000 H   0  0  0  0  0  0  0  0  0  0  0  0
    4.0930    2.5000    0.0000 H   0  0  0  0  0  0  0  0  0  0  0  0
  3  4  1  0  0  0  0
  3  5  1  0  0  0  0
  3  6  1  0  0  0  0
  3  7  1  0  0  0  0
  4  8  1  0  0  0  0
  5  9  1  0  0  0  0
  6 10  1  0  0  0  0
  7 11  1  0  0  0  0
M  END
> <PUBCHEM_COMPOUND_CID>
159687

> <PUBCHEM_COMPOUND_CANONICALIZED>
1

> <PUBCHEM_CACTVS_COMPLEXITY>
19.1

> <PUBCHEM_CACTVS_HBOND_ACCEPTOR>
4

> <PUBCHEM_CACTVS_HBOND_DONOR>
4

> <PUBCHEM_CACTVS_ROTATABLE_BOND>
0

> <PUBCHEM_CACTVS_SUBSKEYS>
AAADcYAAOAgAAAACAAAAAAAAAAAAAAAAAAAAAAAAAAAAAAAAAAAAAAAACEAAAAAAAAAAAAAAAAAAAAAAAAAAAAAAAAAAAAAAAAAAAAAAAAAAAAAAAAAAAAAAAAAAAAAAAAAAAAAAAAAAAAAAAAAAAAAAAA==

> <PUBCHEM_IUPAC_OPENEYE_NAME>
silicic acid;zinc

> <PUBCHEM_IUPAC_CAS_NAME>
silicic acid;zinc

> <PUBCHEM_IUPAC_NAME_MARKUP>
silicic acid;zinc

> <PUBCHEM_IUPAC_NAME>
silicic acid;zinc

> <PUBCHEM_IUPAC_SYSTEMATIC_NAME>
silicic acid;zinc

> <PUBCHEM_IUPAC_TRADITIONAL_NAME>
orthosilicic acid;zinc

> <PUBCHEM_IUPAC_INCHI>
InChI=1S/H4O4Si.2Zn/c1-5(2,3)4;;/h1-4H;;

> <PUBCHEM_IUPAC_INCHIKEY>
COWOWCJDIGPUDT-UHFFFAOYSA-N

> <PUBCHEM_EXACT_MASS>
225.84306

> <PUBCHEM_MOLECULAR_FORMULA>
H4O4SiZn2

> <PUBCHEM_MOLECULAR_WEIGHT>
226.9

> <PUBCHEM_SMILES>
O[Si](O)(O)O.[Zn].[Zn]

> <PUBCHEM_CONNECTIVITY_SMILES>
O[Si](O)(O)O.[Zn].[Zn]

> <PUBCHEM_CACTVS_TPSA>
80.9

> <PUBCHEM_MONOISOTOPIC_WEIGHT>
223.84617

> <PUBCHEM_TOTAL_CHARGE>
0

> <PUBCHEM_HEAVY_ATOM_COUNT>
7

> <PUBCHEM_ATOM_DEF_STEREO_COUNT>
0

> <PUBCHEM_ATOM_UDEF_STEREO_COUNT>
0

> <PUBCHEM_BOND_DEF_STEREO_COUNT>
0

> <PUBCHEM_BOND_UDEF_STEREO_COUNT>
0

> <PUBCHEM_ISOTOPIC_ATOM_COUNT>
0

> <PUBCHEM_COMPONENT_COUNT>
3

> <PUBCHEM_CACTVS_TAUTO_COUNT>
-1

> <PUBCHEM_COORDINATE_TYPE>
1
5
255

$$$$
