61775
  -OEChem-08152605432D

  6  4  0     0  0  0  0  0  0999 V2000
    3.0000    0.0000    0.0000 Zr  0  0  0  0  0  0  0  0  0  0  0  0
    4.0000    1.0000    0.0000 Si  0  0  0  0  0  0  0  0  0  0  0  0
    3.0000    1.0000    0.0000 O   0  5  0  0  0  0  0  0  0  0  0  0
    4.0000   -0.0000    0.0000 O   0  5  0  0  0  0  0  0  0  0  0  0
    2.0000    0.0000    0.0000 O   0  5  0  0  0  0  0  0  0  0  0  0
    3.0000   -1.0000    0.0000 O   0  5  0  0  0  0  0  0  0  0  0  0
  2  3  1  0  0  0  0
  2  4  1  0  0  0  0
  2  5  1  0  0  0  0
  2  6  1  0  0  0  0
M  CHG  5   1   4   3  -1   4  -1   5  -1   6  -1
M  END
> <PUBCHEM_COMPOUND_CID>
61775

> <PUBCHEM_COMPOUND_CANONICALIZED>
1

> <PUBCHEM_CACTVS_COMPLEXITY>
19.1

> <PUBCHEM_CACTVS_HBOND_ACCEPTOR>
4

> <PUBCHEM_CACTVS_HBOND_DONOR>
0

> <PUBCHEM_CACTVS_ROTATABLE_BOND>
0

> <PUBCHEM_CACTVS_SUBSKEYS>
AAADcQAAOAgAAAAAAQAAAAAAAAAAAAAAAAAAAAAAAAAAAAAAAAAAAAAAAEAAAAAAAAAAAAAAAAAAAAAAAAAAAAAAAAAAAAAAAAAAAAAAAAAAAAAAAAAAAAAAAAAAAAAAAAAAAAAAAAAAAAAAAAAAAAAAAA==

> <PUBCHEM_IUPAC_OPENEYE_NAME>
zirconium(4+) silicate

> <PUBCHEM_IUPAC_CAS_NAME>
zirconium(4+) silicate

> <PUBCHEM_IUPAC_NAME_MARKUP>
zirconium(4+) silicate

> <PUBCHEM_IUPAC_NAME>
zirconium(4+) silicate

> <PUBCHEM_IUPAC_SYSTEMATIC_NAME>
zirconium(4+) silicate

> <PUBCHEM_IUPAC_TRADITIONAL_NAME>
zirconium(4+) orthosilicate

> <PUBCHEM_IUPAC_INCHI>
InChI=1S/O4Si.Zr/c1-5(2,3)4;/q-4;+4

> <PUBCHEM_IUPAC_INCHIKEY>
GFQYVLUOOAAOGM-UHFFFAOYSA-N

> <PUBCHEM_EXACT_MASS>
181.861284

> <PUBCHEM_MOLECULAR_FORMULA>
O4SiZr

> <PUBCHEM_MOLECULAR_WEIGHT>
183.30

> <PUBCHEM_SMILES>
[O-][Si]([O-])([O-])[O-].[Zr+4]

> <PUBCHEM_CONNECTIVITY_SMILES>
[O-][Si]([O-])([O-])[O-].[Zr+4]

> <PUBCHEM_CACTVS_TPSA>
92.2

> <PUBCHEM_MONOISOTOPIC_WEIGHT>
181.861284

> <PUBCHEM_TOTAL_CHARGE>
0

> <PUBCHEM_HEAVY_ATOM_COUNT>
6

> <PUBCHEM_ATOM_DEF_STEREO_COUNT>
0

> <PUBCHEM_ATOM_UDEF_STEREO_COUNT>
0

> <PUBCHEM_BOND_DEF_STEREO_COUNT>
0

> <PUBCHEM_BOND_UDEF_STEREO_COUNT>
0

> <PUBCHEM_ISOTOPIC_ATOM_COUNT>
0

> <PUBCHEM_COMPONENT_COUNT>
2

> <PUBCHEM_CACTVS_TAUTO_COUNT>
-1

> <PUBCHEM_COORDINATE_TYPE>
1
5
255

$$$$
