6914520
  -OEChem-08152605192D

  3  0  0     0  0  0  0  0  0999 V2000
    3.7321    0.2500    0.0000 Ag  0  0  0  0  0  0  0  0  0  0  0  0
    2.0000    0.2500    0.0000 Ag  0  0  0  0  0  0  0  0  0  0  0  0
    2.8660   -0.2500    0.0000 Se  0  0  0  0  0 15  0  0  0  0  0  0
M  END
> <PUBCHEM_COMPOUND_CID>
6914520

> <PUBCHEM_COMPOUND_CANONICALIZED>
1

> <PUBCHEM_CACTVS_COMPLEXITY>
2.8

> <PUBCHEM_CACTVS_HBOND_ACCEPTOR>
0

> <PUBCHEM_CACTVS_HBOND_DONOR>
0

> <PUBCHEM_CACTVS_ROTATABLE_BOND>
0

> <PUBCHEM_CACTVS_SUBSKEYS>
AAADcQAAAAAAAAAAIAQAAAAAAAAAAAAAAAAAAAAAAAAAAAAAAAAAAAAAAAAAAAAAAAAAAAAAAAAAAAAAAAAAAAAAAAAAAAAAAAAAAAAAAAAAAAAAAAAAAAAAAAAAAAAAAAAAAAAAAAAAAAAAAAAAAAAAAA==

> <PUBCHEM_IUPAC_INCHI>
InChI=1S/2Ag.Se

> <PUBCHEM_IUPAC_INCHIKEY>
GNWCVDGUVZRYLC-UHFFFAOYSA-N

> <PUBCHEM_EXACT_MASS>
295.72637

> <PUBCHEM_MOLECULAR_FORMULA>
Ag2Se

> <PUBCHEM_MOLECULAR_WEIGHT>
294.71

> <PUBCHEM_SMILES>
[Se].[Ag].[Ag]

> <PUBCHEM_CONNECTIVITY_SMILES>
[Se].[Ag].[Ag]

> <PUBCHEM_CACTVS_TPSA>
0

> <PUBCHEM_MONOISOTOPIC_WEIGHT>
293.72670

> <PUBCHEM_TOTAL_CHARGE>
0

> <PUBCHEM_HEAVY_ATOM_COUNT>
3

> <PUBCHEM_ATOM_DEF_STEREO_COUNT>
0

> <PUBCHEM_ATOM_UDEF_STEREO_COUNT>
0

> <PUBCHEM_BOND_DEF_STEREO_COUNT>
0

> <PUBCHEM_BOND_UDEF_STEREO_COUNT>
0

> <PUBCHEM_ISOTOPIC_ATOM_COUNT>
0

> <PUBCHEM_COMPONENT_COUNT>
3

> <PUBCHEM_CACTVS_TAUTO_COUNT>
-1

> <PUBCHEM_NONSTANDARDBOND>
1  3  6
2  3  6

> <PUBCHEM_COORDINATE_TYPE>
1
5
255

$$$$
