6914515
  -OEChem-08152607082D

  3  0  0     0  0  0  0  0  0999 V2000
    2.8660   -0.2500    0.0000 Te  0  0  0  0  0 15  0  0  0  0  0  0
    3.7321    0.2500    0.0000 Ag  0  0  0  0  0  0  0  0  0  0  0  0
    2.0000    0.2500    0.0000 Ag  0  0  0  0  0  0  0  0  0  0  0  0
M  END
> <PUBCHEM_COMPOUND_CID>
6914515

> <PUBCHEM_COMPOUND_CANONICALIZED>
1

> <PUBCHEM_CACTVS_COMPLEXITY>
2.8

> <PUBCHEM_CACTVS_HBOND_ACCEPTOR>
0

> <PUBCHEM_CACTVS_HBOND_DONOR>
0

> <PUBCHEM_CACTVS_ROTATABLE_BOND>
0

> <PUBCHEM_CACTVS_SUBSKEYS>
AAADcQAAAAAAAAAAAAQgAAAAAAAAAAAAAAAAAAAAAAAAAAAAAAAAAAAAAAAAAAAAAAAAAAAAAAAAAAAAAAAAAAAAAAAAAAAAAAAAAAAAAAAAAAAAAAAAAAAAAAAAAAAAAAAAAAAAAAAAAAAAAAAAAAAAAA==

> <PUBCHEM_IUPAC_INCHI>
InChI=1S/2Ag.Te

> <PUBCHEM_IUPAC_INCHIKEY>
YRXWPCFZBSHSAU-UHFFFAOYSA-N

> <PUBCHEM_EXACT_MASS>
345.71607

> <PUBCHEM_MOLECULAR_FORMULA>
Ag2Te

> <PUBCHEM_MOLECULAR_WEIGHT>
343.3

> <PUBCHEM_SMILES>
[Ag].[Ag].[Te]

> <PUBCHEM_CONNECTIVITY_SMILES>
[Ag].[Ag].[Te]

> <PUBCHEM_CACTVS_TPSA>
0

> <PUBCHEM_MONOISOTOPIC_WEIGHT>
343.71641

> <PUBCHEM_TOTAL_CHARGE>
0

> <PUBCHEM_HEAVY_ATOM_COUNT>
3

> <PUBCHEM_ATOM_DEF_STEREO_COUNT>
0

> <PUBCHEM_ATOM_UDEF_STEREO_COUNT>
0

> <PUBCHEM_BOND_DEF_STEREO_COUNT>
0

> <PUBCHEM_BOND_UDEF_STEREO_COUNT>
0

> <PUBCHEM_ISOTOPIC_ATOM_COUNT>
0

> <PUBCHEM_COMPONENT_COUNT>
3

> <PUBCHEM_CACTVS_TAUTO_COUNT>
-1

> <PUBCHEM_NONSTANDARDBOND>
1  2  6
1  3  6

> <PUBCHEM_COORDINATE_TYPE>
1
5
255

$$$$
