62585
  -OEChem-08152605292D

  4  2  0     0  0  0  0  0  0999 V2000
    4.5981    0.7500    0.0000 Ag  0  3  0  0  0  0  0  0  0  0  0  0
    2.0000   -0.7500    0.0000 O   0  5  0  0  0  0  0  0  0  0  0  0
    2.8660   -0.2500    0.0000 N   0  3  0  0  0  0  0  0  0  0  0  0
    3.7321    0.2500    0.0000 C   0  5  0  0  0  0  0  0  0  0  0  0
  2  3  1  0  0  0  0
  3  4  3  0  0  0  0
M  CHG  4   1   1   2  -1   3   1   4  -1
M  END
> <PUBCHEM_COMPOUND_CID>
62585

> <PUBCHEM_COMPOUND_CANONICALIZED>
1

> <PUBCHEM_CACTVS_COMPLEXITY>
31.3

> <PUBCHEM_CACTVS_HBOND_ACCEPTOR>
2

> <PUBCHEM_CACTVS_HBOND_DONOR>
0

> <PUBCHEM_CACTVS_ROTATABLE_BOND>
0

> <PUBCHEM_CACTVS_SUBSKEYS>
AAADcQACIAAAAAAAAAQAAAAAAAAAAAAAAAAAAAAAAAAAAAAAAAAABAAEAAAAAAAAAAAAAAAQAAAQAAAAAAAAAAAAAAAAAAAAAAAAAAAAAAAAAAAAAAAAAAAAAAAAAAAAAAAAAAAAAAAAAAAAAAAAAAAAAA==

> <PUBCHEM_IUPAC_OPENEYE_NAME>
silver fulminate

> <PUBCHEM_IUPAC_CAS_NAME>
silver oxidonitriliomethane

> <PUBCHEM_IUPAC_NAME_MARKUP>
silver oxidoazaniumylidynemethane

> <PUBCHEM_IUPAC_NAME>
silver oxidoazaniumylidynemethane

> <PUBCHEM_IUPAC_SYSTEMATIC_NAME>
silver oxidanidylazaniumylidynemethane

> <PUBCHEM_IUPAC_TRADITIONAL_NAME>
silver fulminate

> <PUBCHEM_IUPAC_INCHI>
InChI=1S/CNO.Ag/c1-2-3;/q-1;+1

> <PUBCHEM_IUPAC_INCHIKEY>
AZPZMMZIYMVPCK-UHFFFAOYSA-N

> <PUBCHEM_EXACT_MASS>
148.90308

> <PUBCHEM_MOLECULAR_FORMULA>
CAgNO

> <PUBCHEM_MOLECULAR_WEIGHT>
149.885

> <PUBCHEM_SMILES>
[C-]#[N+][O-].[Ag+]

> <PUBCHEM_CONNECTIVITY_SMILES>
[C-]#[N+][O-].[Ag+]

> <PUBCHEM_CACTVS_TPSA>
30.7

> <PUBCHEM_MONOISOTOPIC_WEIGHT>
148.90308

> <PUBCHEM_TOTAL_CHARGE>
0

> <PUBCHEM_HEAVY_ATOM_COUNT>
4

> <PUBCHEM_ATOM_DEF_STEREO_COUNT>
0

> <PUBCHEM_ATOM_UDEF_STEREO_COUNT>
0

> <PUBCHEM_BOND_DEF_STEREO_COUNT>
0

> <PUBCHEM_BOND_UDEF_STEREO_COUNT>
0

> <PUBCHEM_ISOTOPIC_ATOM_COUNT>
0

> <PUBCHEM_COMPONENT_COUNT>
2

> <PUBCHEM_CACTVS_TAUTO_COUNT>
-1

> <PUBCHEM_COORDINATE_TYPE>
1
5
255

$$$$
