62666
  -OEChem-08152607222D

  7  4  0     0  0  0  0  0  0999 V2000
    5.4641    0.0000    0.0000 Ag  0  3  0  0  0  0  0  0  0  0  0  0
    2.0000   -0.0000    0.0000 Ag  0  3  0  0  0  0  0  0  0  0  0  0
    3.7321    0.0000    0.0000 Cr  0  0  0  0  0  0  0  0  0  0  0  0
    4.5981    0.5000    0.0000 O   0  5  0  0  0  0  0  0  0  0  0  0
    2.8660   -0.5000    0.0000 O   0  5  0  0  0  0  0  0  0  0  0  0
    3.2321    0.8660    0.0000 O   0  0  0  0  0  0  0  0  0  0  0  0
    4.2321   -0.8660    0.0000 O   0  0  0  0  0  0  0  0  0  0  0  0
  3  4  1  0  0  0  0
  3  5  1  0  0  0  0
  3  6  2  0  0  0  0
  3  7  2  0  0  0  0
M  CHG  4   1   1   2   1   4  -1   5  -1
M  END
> <PUBCHEM_COMPOUND_CID>
62666

> <PUBCHEM_COMPOUND_CANONICALIZED>
1

> <PUBCHEM_CACTVS_COMPLEXITY>
62.2

> <PUBCHEM_CACTVS_HBOND_ACCEPTOR>
4

> <PUBCHEM_CACTVS_HBOND_DONOR>
0

> <PUBCHEM_CACTVS_ROTATABLE_BOND>
0

> <PUBCHEM_CACTVS_SUBSKEYS>
AAADcQAAOAAAAACAAAQAAAAAAAAAAAAAAAAAAAAAAAAAAAAAAAAAAAAAAAAAAAAAAAAAAAAAAAAAAAAAAAAAAAAAAAAAAAAAAAAAAAAAAAAAAAAAAAAAAAAAAAAAAAAAAAAAAAAAAAAAAAAAAAAAAAAAAA==

> <PUBCHEM_IUPAC_OPENEYE_NAME>
disilver;dioxido(dioxo)chromium

> <PUBCHEM_IUPAC_CAS_NAME>
disilver;dioxido(dioxo)chromium

> <PUBCHEM_IUPAC_NAME_MARKUP>
disilver;dioxido(dioxo)chromium

> <PUBCHEM_IUPAC_NAME>
disilver;dioxido(dioxo)chromium

> <PUBCHEM_IUPAC_SYSTEMATIC_NAME>
disilver;bis(oxidanidyl)-bis(oxidanylidene)chromium

> <PUBCHEM_IUPAC_TRADITIONAL_NAME>
disilver;diketo(dioxido)chromium

> <PUBCHEM_IUPAC_INCHI>
InChI=1S/2Ag.Cr.4O/q2*+1;;;;2*-1

> <PUBCHEM_IUPAC_INCHIKEY>
OJKANDGLELGDHV-UHFFFAOYSA-N

> <PUBCHEM_EXACT_MASS>
331.73001

> <PUBCHEM_MOLECULAR_FORMULA>
Ag2CrO4

> <PUBCHEM_MOLECULAR_WEIGHT>
331.730

> <PUBCHEM_SMILES>
[O-][Cr](=O)(=O)[O-].[Ag+].[Ag+]

> <PUBCHEM_CONNECTIVITY_SMILES>
[O-][Cr](=O)(=O)[O-].[Ag+].[Ag+]

> <PUBCHEM_CACTVS_TPSA>
80.3

> <PUBCHEM_MONOISOTOPIC_WEIGHT>
329.73035

> <PUBCHEM_TOTAL_CHARGE>
0

> <PUBCHEM_HEAVY_ATOM_COUNT>
7

> <PUBCHEM_ATOM_DEF_STEREO_COUNT>
0

> <PUBCHEM_ATOM_UDEF_STEREO_COUNT>
0

> <PUBCHEM_BOND_DEF_STEREO_COUNT>
0

> <PUBCHEM_BOND_UDEF_STEREO_COUNT>
0

> <PUBCHEM_ISOTOPIC_ATOM_COUNT>
0

> <PUBCHEM_COMPONENT_COUNT>
3

> <PUBCHEM_CACTVS_TAUTO_COUNT>
-1

> <PUBCHEM_COORDINATE_TYPE>
1
5
255

$$$$
