11424678
  -OEChem-08152605192D

  6  4  0     0  0  0  0  0  0999 V2000
    4.3801    0.4483    0.0000 Ag  0  3  0  0  0  0  0  0  0  0  0  0
    2.7071    0.0000    0.0000 Mn  0  0  0  0  0  0  0  0  0  0  0  0
    3.4142    0.7071    0.0000 O   0  5  0  0  0  0  0  0  0  0  0  0
    2.0000   -0.7071    0.0000 O   0  0  0  0  0  0  0  0  0  0  0  0
    3.4142   -0.7071    0.0000 O   0  0  0  0  0  0  0  0  0  0  0  0
    2.0000    0.7071    0.0000 O   0  0  0  0  0  0  0  0  0  0  0  0
  2  3  1  6  0  0  0
  2  4  2  1  0  0  0
  2  5  2  1  0  0  0
  2  6  2  6  0  0  0
M  CHG  2   1   1   3  -1
M  END
> <PUBCHEM_COMPOUND_CID>
11424678

> <PUBCHEM_COMPOUND_CANONICALIZED>
1

> <PUBCHEM_CACTVS_COMPLEXITY>
95.8

> <PUBCHEM_CACTVS_HBOND_ACCEPTOR>
4

> <PUBCHEM_CACTVS_HBOND_DONOR>
0

> <PUBCHEM_CACTVS_ROTATABLE_BOND>
0

> <PUBCHEM_CACTVS_SUBSKEYS>
AAADcQAAOAAAAABAAAQAAAAAAAAAAAAAAAAAAAAAAAAAAAAAAAAAAAAAAAAAAAAAAAAAAAAAAAAAAAAAAAAAAAAAAAAAAAAAAAAAAAAAAAAAAAAAAAAAAAAAAAAAAAAAAAAAAAAAAAAAAAAAAAAAAAAAAA==

> <PUBCHEM_IUPAC_OPENEYE_NAME>
silver permanganate

> <PUBCHEM_IUPAC_CAS_NAME>
silver permanganate

> <PUBCHEM_IUPAC_NAME_MARKUP>
silver permanganate

> <PUBCHEM_IUPAC_NAME>
silver permanganate

> <PUBCHEM_IUPAC_SYSTEMATIC_NAME>
silver permanganate

> <PUBCHEM_IUPAC_TRADITIONAL_NAME>
silver permanganate

> <PUBCHEM_IUPAC_INCHI>
InChI=1S/Ag.Mn.4O/q+1;;;;;-1

> <PUBCHEM_IUPAC_INCHIKEY>
FBDQITNNUANGAD-UHFFFAOYSA-N

> <PUBCHEM_EXACT_MASS>
225.82279

> <PUBCHEM_MOLECULAR_FORMULA>
AgMnO4

> <PUBCHEM_MOLECULAR_WEIGHT>
226.804

> <PUBCHEM_SMILES>
[O-][Mn](=O)(=O)=O.[Ag+]

> <PUBCHEM_CONNECTIVITY_SMILES>
[O-][Mn](=O)(=O)=O.[Ag+]

> <PUBCHEM_CACTVS_TPSA>
74.3

> <PUBCHEM_MONOISOTOPIC_WEIGHT>
225.82279

> <PUBCHEM_TOTAL_CHARGE>
0

> <PUBCHEM_HEAVY_ATOM_COUNT>
6

> <PUBCHEM_ATOM_DEF_STEREO_COUNT>
0

> <PUBCHEM_ATOM_UDEF_STEREO_COUNT>
0

> <PUBCHEM_BOND_DEF_STEREO_COUNT>
0

> <PUBCHEM_BOND_UDEF_STEREO_COUNT>
0

> <PUBCHEM_ISOTOPIC_ATOM_COUNT>
0

> <PUBCHEM_COMPONENT_COUNT>
2

> <PUBCHEM_CACTVS_TAUTO_COUNT>
-1

> <PUBCHEM_COORDINATE_TYPE>
1
5
255

> <PUBCHEM_BONDANNOTATIONS>
2  3  6
2  4  5
2  5  5
2  6  6

$$$$
