11089628
  -OEChem-08152605422D

  6  4  0     0  0  0  0  0  0999 V2000
    2.7071    0.0000    0.0000 Re  0  0  0  0  0  0  0  0  0  0  0  0
    4.3801    0.4483    0.0000 Ag  0  3  0  0  0  0  0  0  0  0  0  0
    3.4142    0.7071    0.0000 O   0  5  0  0  0  0  0  0  0  0  0  0
    2.0000   -0.7071    0.0000 O   0  0  0  0  0  0  0  0  0  0  0  0
    2.0000    0.7071    0.0000 O   0  0  0  0  0  0  0  0  0  0  0  0
    3.4142   -0.7071    0.0000 O   0  0  0  0  0  0  0  0  0  0  0  0
  1  3  1  0  0  0  0
  1  4  2  0  0  0  0
  1  5  2  0  0  0  0
  1  6  2  0  0  0  0
M  CHG  2   2   1   3  -1
M  END
> <PUBCHEM_COMPOUND_CID>
11089628

> <PUBCHEM_COMPOUND_CANONICALIZED>
1

> <PUBCHEM_CACTVS_COMPLEXITY>
95.8

> <PUBCHEM_CACTVS_HBOND_ACCEPTOR>
4

> <PUBCHEM_CACTVS_HBOND_DONOR>
0

> <PUBCHEM_CACTVS_ROTATABLE_BOND>
0

> <PUBCHEM_CACTVS_SUBSKEYS>
AAADcQAAOAAAAAAAAAQAIAAAAAAAAAAAAAAAAAAAAAAAAAAAAAAAAAAAAAAAAAAAAAAAAAAAAAAAAAAAAAAAAAAAAAAAAAAAAAAAAAAAAAAAAAAAAAAAAAAAAAAAAAAAAAAAAAAAAAAAAAAAAAAAAAAAAA==

> <PUBCHEM_IUPAC_OPENEYE_NAME>
silver oxido(trioxo)rhenium

> <PUBCHEM_IUPAC_CAS_NAME>
silver oxido(trioxo)rhenium

> <PUBCHEM_IUPAC_NAME_MARKUP>
silver oxido(trioxo)rhenium

> <PUBCHEM_IUPAC_NAME>
silver oxido(trioxo)rhenium

> <PUBCHEM_IUPAC_SYSTEMATIC_NAME>
silver oxidanidyl-tris(oxidanylidene)rhenium

> <PUBCHEM_IUPAC_TRADITIONAL_NAME>
silver triketo(oxido)rhenium

> <PUBCHEM_IUPAC_INCHI>
InChI=1S/Ag.4O.Re/q+1;;;;-1;

> <PUBCHEM_IUPAC_INCHIKEY>
JRISYOCHUNKJAV-UHFFFAOYSA-N

> <PUBCHEM_EXACT_MASS>
357.84050

> <PUBCHEM_MOLECULAR_FORMULA>
AgO4Re

> <PUBCHEM_MOLECULAR_WEIGHT>
358.07

> <PUBCHEM_SMILES>
[O-][Re](=O)(=O)=O.[Ag+]

> <PUBCHEM_CONNECTIVITY_SMILES>
[O-][Re](=O)(=O)=O.[Ag+]

> <PUBCHEM_CACTVS_TPSA>
74.3

> <PUBCHEM_MONOISOTOPIC_WEIGHT>
357.84050

> <PUBCHEM_TOTAL_CHARGE>
0

> <PUBCHEM_HEAVY_ATOM_COUNT>
6

> <PUBCHEM_ATOM_DEF_STEREO_COUNT>
0

> <PUBCHEM_ATOM_UDEF_STEREO_COUNT>
0

> <PUBCHEM_BOND_DEF_STEREO_COUNT>
0

> <PUBCHEM_BOND_UDEF_STEREO_COUNT>
0

> <PUBCHEM_ISOTOPIC_ATOM_COUNT>
0

> <PUBCHEM_COMPONENT_COUNT>
2

> <PUBCHEM_CACTVS_TAUTO_COUNT>
-1

> <PUBCHEM_COORDINATE_TYPE>
1
5
255

$$$$
