165642
  -OEChem-08152604242D

  5  3  0     0  0  0  0  0  0999 V2000
    2.8660    0.2500    0.0000 I   0  0  0  0  0  0  0  0  0  0  0  0
    4.5981    0.2500    0.0000 Ag  0  3  0  0  0  0  0  0  0  0  0  0
    3.7321    0.7500    0.0000 O   0  5  0  0  0  0  0  0  0  0  0  0
    2.0000    0.7500    0.0000 O   0  0  0  0  0  0  0  0  0  0  0  0
    2.8660   -0.7500    0.0000 O   0  0  0  0  0  0  0  0  0  0  0  0
  1  3  1  0  0  0  0
  1  4  2  0  0  0  0
  1  5  2  0  0  0  0
M  CHG  2   2   1   3  -1
M  END
> <PUBCHEM_COMPOUND_CID>
165642

> <PUBCHEM_COMPOUND_CANONICALIZED>
1

> <PUBCHEM_CACTVS_COMPLEXITY>
36.5

> <PUBCHEM_CACTVS_HBOND_ACCEPTOR>
3

> <PUBCHEM_CACTVS_HBOND_DONOR>
0

> <PUBCHEM_CACTVS_ROTATABLE_BOND>
0

> <PUBCHEM_CACTVS_SUBSKEYS>
AAADcQAAMAAAAgAAAAQAAAAAAAAAAAAAAAAAAAAAAAAAAAAAAAAAAAAAAAAAAAAAAAAAAAAAAAAAAAAAAAAAAAAAAAAAAAAAAAAAAAAAAAAAAAAAAAAAAAAAAAAAAAAAAAAAAAAAAAAAAAAAAAAAAAAAAA==

> <PUBCHEM_IUPAC_OPENEYE_NAME>
silver iodate

> <PUBCHEM_IUPAC_CAS_NAME>
silver iodate

> <PUBCHEM_IUPAC_NAME_MARKUP>
silver iodate

> <PUBCHEM_IUPAC_NAME>
silver iodate

> <PUBCHEM_IUPAC_SYSTEMATIC_NAME>
silver iodate

> <PUBCHEM_IUPAC_TRADITIONAL_NAME>
silver iodate

> <PUBCHEM_IUPAC_INCHI>
InChI=1S/Ag.HIO3/c;2-1(3)4/h;(H,2,3,4)/q+1;/p-1

> <PUBCHEM_IUPAC_INCHIKEY>
YSVXTGDPTJIEIX-UHFFFAOYSA-M

> <PUBCHEM_EXACT_MASS>
281.79431

> <PUBCHEM_MOLECULAR_FORMULA>
AgIO3

> <PUBCHEM_MOLECULAR_WEIGHT>
282.771

> <PUBCHEM_SMILES>
[O-]I(=O)=O.[Ag+]

> <PUBCHEM_CONNECTIVITY_SMILES>
[O-]I(=O)=O.[Ag+]

> <PUBCHEM_CACTVS_TPSA>
57.2

> <PUBCHEM_MONOISOTOPIC_WEIGHT>
281.79431

> <PUBCHEM_TOTAL_CHARGE>
0

> <PUBCHEM_HEAVY_ATOM_COUNT>
5

> <PUBCHEM_ATOM_DEF_STEREO_COUNT>
0

> <PUBCHEM_ATOM_UDEF_STEREO_COUNT>
0

> <PUBCHEM_BOND_DEF_STEREO_COUNT>
0

> <PUBCHEM_BOND_UDEF_STEREO_COUNT>
0

> <PUBCHEM_ISOTOPIC_ATOM_COUNT>
0

> <PUBCHEM_COMPONENT_COUNT>
2

> <PUBCHEM_CACTVS_TAUTO_COUNT>
-1

> <PUBCHEM_COORDINATE_TYPE>
1
5
255

$$$$
