23266
  -OEChem-08152604362D

  6  3  0     0  0  0  0  0  0999 V2000
    3.7321    0.2500    0.0000 Si  0  0  0  0  0  0  0  0  0  0  0  0
    5.4641    0.2500    0.0000 Na  0  3  0  0  0  0  0  0  0  0  0  0
    2.0000    0.2500    0.0000 Na  0  3  0  0  0  0  0  0  0  0  0  0
    4.5981    0.7500    0.0000 O   0  5  0  0  0  0  0  0  0  0  0  0
    2.8660    0.7500    0.0000 O   0  5  0  0  0  0  0  0  0  0  0  0
    3.7321   -0.7500    0.0000 O   0  0  0  0  0  0  0  0  0  0  0  0
  1  4  1  0  0  0  0
  1  5  1  0  0  0  0
  1  6  2  0  0  0  0
M  CHG  4   2   1   3   1   4  -1   5  -1
M  END
> <PUBCHEM_COMPOUND_CID>
23266

> <PUBCHEM_COMPOUND_CANONICALIZED>
1

> <PUBCHEM_CACTVS_COMPLEXITY>
18.8

> <PUBCHEM_CACTVS_HBOND_ACCEPTOR>
3

> <PUBCHEM_CACTVS_HBOND_DONOR>
0

> <PUBCHEM_CACTVS_ROTATABLE_BOND>
0

> <PUBCHEM_CACTVS_SUBSKEYS>
AAADcQAAMDgAAAAAAAAAAAAAAAAAAAAAAAAAAAAAAAAAAAAAAAAAAAAAAEAAAAAAAAAAAAAAAAAAAAAAAAAAAAAAAAAAAAAAAAAAAAAAAAAAAAAAAAAAAAAAAAAAAAAAAAAAAAAAAAAAAAAAAAAAAAAAAA==

> <PUBCHEM_IUPAC_OPENEYE_NAME>
disodium;dioxido(oxo)silane

> <PUBCHEM_IUPAC_CAS_NAME>
disodium;dioxido(oxo)silane

> <PUBCHEM_IUPAC_NAME_MARKUP>
disodium;dioxido(oxo)silane

> <PUBCHEM_IUPAC_NAME>
disodium;dioxido(oxo)silane

> <PUBCHEM_IUPAC_SYSTEMATIC_NAME>
disodium;bis(oxidanidyl)-oxidanylidene-silane

> <PUBCHEM_IUPAC_TRADITIONAL_NAME>
disodium;keto(dioxido)silane

> <PUBCHEM_IUPAC_INCHI>
InChI=1S/2Na.O3Si/c;;1-4(2)3/q2*+1;-2

> <PUBCHEM_IUPAC_INCHIKEY>
NTHWMYGWWRZVTN-UHFFFAOYSA-N

> <PUBCHEM_EXACT_MASS>
121.94120896

> <PUBCHEM_MOLECULAR_FORMULA>
Na2O3Si

> <PUBCHEM_MOLECULAR_WEIGHT>
122.063

> <PUBCHEM_SMILES>
[O-][Si](=O)[O-].[Na+].[Na+]

> <PUBCHEM_CONNECTIVITY_SMILES>
[O-][Si](=O)[O-].[Na+].[Na+]

> <PUBCHEM_CACTVS_TPSA>
63.2

> <PUBCHEM_MONOISOTOPIC_WEIGHT>
121.94120896

> <PUBCHEM_TOTAL_CHARGE>
0

> <PUBCHEM_HEAVY_ATOM_COUNT>
6

> <PUBCHEM_ATOM_DEF_STEREO_COUNT>
0

> <PUBCHEM_ATOM_UDEF_STEREO_COUNT>
0

> <PUBCHEM_BOND_DEF_STEREO_COUNT>
0

> <PUBCHEM_BOND_UDEF_STEREO_COUNT>
0

> <PUBCHEM_ISOTOPIC_ATOM_COUNT>
0

> <PUBCHEM_COMPONENT_COUNT>
3

> <PUBCHEM_CACTVS_TAUTO_COUNT>
-1

> <PUBCHEM_COORDINATE_TYPE>
1
5
255

$$$$
