159748
  -OEChem-08152605492D

 22 12  0     0  0  0  0  0  0999 V2000
    7.1962    2.5000    0.0000 Co  0  1  0  0  0  0  0  0  0  0  0  0
    0.0000    4.2500    0.0000 Na  0  3  0  0  0  0  0  0  0  0  0  0
    5.8971    5.5000    0.0000 Na  0  3  0  0  0  0  0  0  0  0  0  0
    5.8971    8.0000    0.0000 Na  0  3  0  0  0  0  0  0  0  0  0  0
    6.3301    3.0000    0.0000 O   0  5  0  0  0  0  0  0  0  0  0  0
    6.7631    7.5000    0.0000 O   0  5  0  0  0  0  0  0  0  0  0  0
    6.7631    5.0000    0.0000 O   0  5  0  0  0  0  0  0  0  0  0  0
    0.8660    3.7500    0.0000 O   0  5  0  0  0  0  0  0  0  0  0  0
    7.1962    1.5000    0.0000 O   0  5  0  0  0  0  0  0  0  0  0  0
    8.0622    3.0000    0.0000 O   0  5  0  0  0  0  0  0  0  0  0  0
    4.5981    3.0000    0.0000 O   0  0  0  0  0  0  0  0  0  0  0  0
    8.4952    7.5000    0.0000 O   0  0  0  0  0  0  0  0  0  0  0  0
    8.4952    5.0000    0.0000 O   0  0  0  0  0  0  0  0  0  0  0  0
    2.5981    3.7500    0.0000 O   0  0  0  0  0  0  0  0  0  0  0  0
    6.3301    0.0000    0.0000 O   0  0  0  0  0  0  0  0  0  0  0  0
    9.7942    3.0000    0.0000 O   0  0  0  0  0  0  0  0  0  0  0  0
    5.4641    2.5000    0.0000 N   0  0  0  0  0  0  0  0  0  0  0  0
    7.6292    8.0000    0.0000 N   0  0  0  0  0  0  0  0  0  0  0  0
    7.6292    5.5000    0.0000 N   0  0  0  0  0  0  0  0  0  0  0  0
    1.7321    4.2500    0.0000 N   0  0  0  0  0  0  0  0  0  0  0  0
    6.3301    1.0000    0.0000 N   0  0  0  0  0  0  0  0  0  0  0  0
    8.9282    2.5000    0.0000 N   0  0  0  0  0  0  0  0  0  0  0  0
  5 17  1  0  0  0  0
  6 18  1  0  0  0  0
  7 19  1  0  0  0  0
  8 20  1  0  0  0  0
  9 21  1  0  0  0  0
 10 22  1  0  0  0  0
 11 17  2  0  0  0  0
 12 18  2  0  0  0  0
 13 19  2  0  0  0  0
 14 20  2  0  0  0  0
 15 21  2  0  0  0  0
 16 22  2  0  0  0  0
M  CHG  8   1   3   2   1   3   1   4   1   5  -1   6  -1   7  -1   8  -1
M  CHG  2   9  -1  10  -1
M  END
> <PUBCHEM_COMPOUND_CID>
159748

> <PUBCHEM_COMPOUND_CANONICALIZED>
1

> <PUBCHEM_CACTVS_COMPLEXITY>
7.5

> <PUBCHEM_CACTVS_HBOND_ACCEPTOR>
18

> <PUBCHEM_CACTVS_HBOND_DONOR>
0

> <PUBCHEM_CACTVS_ROTATABLE_BOND>
0

> <PUBCHEM_CACTVS_SUBSKEYS>
AAADcQADvDAAAAAQAAAAAAAAAAAAAAAAAAAAAAAAAAAAAAAAAAAAAAAEAAAAAAAAAAAAAAAAQAABAAAAAQAAAAAAAAAAAAAAAAAAAAAAAAAAAAAAAAAAAAAAAAAAAAAAAAAAAAAAAAAAAAAAAAAAAAAAAA==

> <PUBCHEM_IUPAC_OPENEYE_NAME>
cobaltic;trisodium;hexanitrite

> <PUBCHEM_IUPAC_CAS_NAME>
trisodium;cobalt(3+);hexanitrite

> <PUBCHEM_IUPAC_NAME_MARKUP>
trisodium;cobalt(3+);hexanitrite

> <PUBCHEM_IUPAC_NAME>
trisodium;cobalt(3+);hexanitrite

> <PUBCHEM_IUPAC_SYSTEMATIC_NAME>
trisodium;cobalt(3+);hexanitrite

> <PUBCHEM_IUPAC_TRADITIONAL_NAME>
cobaltic;trisodium;hexanitrite

> <PUBCHEM_IUPAC_INCHI>
InChI=1S/Co.6HNO2.3Na/c;6*2-1-3;;;/h;6*(H,2,3);;;/q+3;;;;;;;3*+1/p-6

> <PUBCHEM_IUPAC_INCHIKEY>
ZEBNDJQGEZXBCR-UHFFFAOYSA-H

> <PUBCHEM_EXACT_MASS>
403.859921

> <PUBCHEM_MOLECULAR_FORMULA>
CoN6Na3O12

> <PUBCHEM_MOLECULAR_WEIGHT>
403.94

> <PUBCHEM_SMILES>
N(=O)[O-].N(=O)[O-].N(=O)[O-].N(=O)[O-].N(=O)[O-].N(=O)[O-].[Na+].[Na+].[Na+].[Co+3]

> <PUBCHEM_CONNECTIVITY_SMILES>
N(=O)[O-].N(=O)[O-].N(=O)[O-].N(=O)[O-].N(=O)[O-].N(=O)[O-].[Na+].[Na+].[Na+].[Co+3]

> <PUBCHEM_CACTVS_TPSA>
315

> <PUBCHEM_MONOISOTOPIC_WEIGHT>
403.859921

> <PUBCHEM_TOTAL_CHARGE>
0

> <PUBCHEM_HEAVY_ATOM_COUNT>
22

> <PUBCHEM_ATOM_DEF_STEREO_COUNT>
0

> <PUBCHEM_ATOM_UDEF_STEREO_COUNT>
0

> <PUBCHEM_BOND_DEF_STEREO_COUNT>
0

> <PUBCHEM_BOND_UDEF_STEREO_COUNT>
0

> <PUBCHEM_ISOTOPIC_ATOM_COUNT>
0

> <PUBCHEM_COMPONENT_COUNT>
10

> <PUBCHEM_CACTVS_TAUTO_COUNT>
-1

> <PUBCHEM_COORDINATE_TYPE>
1
5
255

$$$$
