27127
  -OEChem-08152607012D

  6  4  0     0  0  0  0  0  0999 V2000
    0.7071    0.7071    0.0000 Au  0  5  0  0  0  0  0  0  0  0  0  0
    0.0000    0.0000    0.0000 Cl  0  0  0  0  0  0  0  0  0  0  0  0
    1.4142    0.0000    0.0000 Cl  0  0  0  0  0  0  0  0  0  0  0  0
    1.4142    1.4142    0.0000 Cl  0  0  0  0  0  0  0  0  0  0  0  0
    0.0000    1.4142    0.0000 Cl  0  0  0  0  0  0  0  0  0  0  0  0
    0.4571    3.4142    0.0000 Na  0  3  0  0  0  0  0  0  0  0  0  0
  1  2  1  1  0  0  0
  1  3  1  1  0  0  0
  1  4  1  6  0  0  0
  1  5  1  6  0  0  0
M  CHG  2   1  -1   6   1
M  END
> <PUBCHEM_COMPOUND_CID>
27127

> <PUBCHEM_COMPOUND_CANONICALIZED>
1

> <PUBCHEM_CACTVS_COMPLEXITY>
19.1

> <PUBCHEM_CACTVS_HBOND_ACCEPTOR>
1

> <PUBCHEM_CACTVS_HBOND_DONOR>
0

> <PUBCHEM_CACTVS_ROTATABLE_BOND>
0

> <PUBCHEM_CACTVS_SUBSKEYS>
AAADcQAAACAHAAAAAAAAAgAAAAAAAAAAAAAAAAAAAAAAAAAAAAAAAAAAAAAAAAAAAAAAAAAAAAAAAAAAAAAAAAAAAAAAAAAAAAAAAAAAAAAAAAAAAAAAAAAAAAAAAAAAAAAAAAAAAAAAAAAAAAAAAAAAAA==

> <PUBCHEM_IUPAC_OPENEYE_NAME>
sodium tetrachlorogold(1-)

> <PUBCHEM_IUPAC_CAS_NAME>
sodium tetrachlorogold(1-)

> <PUBCHEM_IUPAC_NAME_MARKUP>
sodium tetrachlorogold(1-)

> <PUBCHEM_IUPAC_NAME>
sodium tetrachlorogold(1-)

> <PUBCHEM_IUPAC_SYSTEMATIC_NAME>
sodium tetrakis(chloranyl)gold(1-)

> <PUBCHEM_IUPAC_TRADITIONAL_NAME>
sodium tetrachlorogold(1-)

> <PUBCHEM_IUPAC_INCHI>
InChI=1S/Au.4ClH.Na/h;4*1H;/q+3;;;;;+1/p-4

> <PUBCHEM_IUPAC_INCHIKEY>
IXPWAPCEBHEFOV-UHFFFAOYSA-J

> <PUBCHEM_EXACT_MASS>
361.828800

> <PUBCHEM_MOLECULAR_FORMULA>
AuCl4Na

> <PUBCHEM_MOLECULAR_WEIGHT>
361.8

> <PUBCHEM_SMILES>
[Na+].Cl[Au-](Cl)(Cl)Cl

> <PUBCHEM_CONNECTIVITY_SMILES>
[Na+].Cl[Au-](Cl)(Cl)Cl

> <PUBCHEM_CACTVS_TPSA>
0

> <PUBCHEM_MONOISOTOPIC_WEIGHT>
359.831750

> <PUBCHEM_TOTAL_CHARGE>
0

> <PUBCHEM_HEAVY_ATOM_COUNT>
6

> <PUBCHEM_ATOM_DEF_STEREO_COUNT>
0

> <PUBCHEM_ATOM_UDEF_STEREO_COUNT>
0

> <PUBCHEM_BOND_DEF_STEREO_COUNT>
0

> <PUBCHEM_BOND_UDEF_STEREO_COUNT>
0

> <PUBCHEM_ISOTOPIC_ATOM_COUNT>
0

> <PUBCHEM_COMPONENT_COUNT>
2

> <PUBCHEM_CACTVS_TAUTO_COUNT>
-1

> <PUBCHEM_COORDINATE_TYPE>
1
5
255

> <PUBCHEM_BONDANNOTATIONS>
1  2  5
1  3  5
1  4  6
1  5  6

$$$$
