516919
  -OEChem-08152607222D

  7  5  0     0  0  0  0  0  0999 V2000
    3.4030    0.0000    0.0000 S   0  0  0  0  0  0  0  0  0  0  0  0
    5.1350    0.0000    0.0000 Na  0  3  0  0  0  0  0  0  0  0  0  0
    4.2690    0.5000    0.0000 O   0  5  0  0  0  0  0  0  0  0  0  0
    2.5369   -0.5000    0.0000 O   0  0  0  0  0  0  0  0  0  0  0  0
    2.9030    0.8660    0.0000 O   0  0  0  0  0  0  0  0  0  0  0  0
    3.9030   -0.8660    0.0000 O   0  0  0  0  0  0  0  0  0  0  0  0
    2.0000   -0.1900    0.0000 H   0  0  0  0  0  0  0  0  0  0  0  0
  1  3  1  0  0  0  0
  1  4  1  0  0  0  0
  1  5  2  0  0  0  0
  1  6  2  0  0  0  0
  4  7  1  0  0  0  0
M  CHG  2   2   1   3  -1
M  END
> <PUBCHEM_COMPOUND_CID>
516919

> <PUBCHEM_COMPOUND_CANONICALIZED>
1

> <PUBCHEM_CACTVS_COMPLEXITY>
93.2

> <PUBCHEM_CACTVS_HBOND_ACCEPTOR>
4

> <PUBCHEM_CACTVS_HBOND_DONOR>
1

> <PUBCHEM_CACTVS_ROTATABLE_BOND>
0

> <PUBCHEM_CACTVS_SUBSKEYS>
AAADcQAAOCBAAAAAAAAAAAAAAAAAAAAAAAAAAAAAAAAAAAAAAAAAAAAACAAAAAAAAAAAAAAAAIAAAAAAADAAAAAAAAAAAAAAAAAAAAAAAAAAAAAAAAAAAAAAAAAAAAAAAAAAAAAAAAAAAAAAAAAAAAAAAA==

> <PUBCHEM_IUPAC_OPENEYE_NAME>
sodium hydrogen sulfate

> <PUBCHEM_IUPAC_CAS_NAME>
sodium hydrogen sulfate

> <PUBCHEM_IUPAC_NAME_MARKUP>
sodium hydrogen sulfate

> <PUBCHEM_IUPAC_NAME>
sodium hydrogen sulfate

> <PUBCHEM_IUPAC_SYSTEMATIC_NAME>
sodium hydrogen sulfate

> <PUBCHEM_IUPAC_TRADITIONAL_NAME>
sodium bisulfate

> <PUBCHEM_IUPAC_INCHI>
InChI=1S/Na.H2O4S/c;1-5(2,3)4/h;(H2,1,2,3,4)/q+1;/p-1

> <PUBCHEM_IUPAC_INCHIKEY>
WBHQBSYUUJJSRZ-UHFFFAOYSA-M

> <PUBCHEM_EXACT_MASS>
119.94932396

> <PUBCHEM_MOLECULAR_FORMULA>
HNaO4S

> <PUBCHEM_MOLECULAR_WEIGHT>
120.06

> <PUBCHEM_SMILES>
OS(=O)(=O)[O-].[Na+]

> <PUBCHEM_CONNECTIVITY_SMILES>
OS(=O)(=O)[O-].[Na+]

> <PUBCHEM_CACTVS_TPSA>
85.8

> <PUBCHEM_MONOISOTOPIC_WEIGHT>
119.94932396

> <PUBCHEM_TOTAL_CHARGE>
0

> <PUBCHEM_HEAVY_ATOM_COUNT>
6

> <PUBCHEM_ATOM_DEF_STEREO_COUNT>
0

> <PUBCHEM_ATOM_UDEF_STEREO_COUNT>
0

> <PUBCHEM_BOND_DEF_STEREO_COUNT>
0

> <PUBCHEM_BOND_UDEF_STEREO_COUNT>
0

> <PUBCHEM_ISOTOPIC_ATOM_COUNT>
0

> <PUBCHEM_COMPONENT_COUNT>
2

> <PUBCHEM_CACTVS_TAUTO_COUNT>
-1

> <PUBCHEM_NONSTANDARDBOND>
2  3  7

> <PUBCHEM_COORDINATE_TYPE>
1
5
255

$$$$
