47275
  -OEChem-08152605452D

  8  4  0     0  0  0  0  0  0999 V2000
    3.7321   -0.4330    0.0000 As  0  0  0  0  0  0  0  0  0  0  0  0
    5.4641   -0.4330    0.0000 Na  0  3  0  0  0  0  0  0  0  0  0  0
    2.0000   -0.4330    0.0000 Na  0  3  0  0  0  0  0  0  0  0  0  0
    3.7321    1.2990    0.0000 Na  0  3  0  0  0  0  0  0  0  0  0  0
    4.5981    0.0670    0.0000 O   0  5  0  0  0  0  0  0  0  0  0  0
    2.8660   -0.9330    0.0000 O   0  5  0  0  0  0  0  0  0  0  0  0
    3.2321    0.4330    0.0000 O   0  5  0  0  0  0  0  0  0  0  0  0
    4.2321   -1.2990    0.0000 O   0  0  0  0  0  0  0  0  0  0  0  0
  1  5  1  0  0  0  0
  1  6  1  0  0  0  0
  1  7  1  0  0  0  0
  1  8  2  0  0  0  0
M  CHG  6   2   1   3   1   4   1   5  -1   6  -1   7  -1
M  END
> <PUBCHEM_COMPOUND_CID>
47275

> <PUBCHEM_COMPOUND_CANONICALIZED>
1

> <PUBCHEM_CACTVS_COMPLEXITY>
36.8

> <PUBCHEM_CACTVS_HBOND_ACCEPTOR>
4

> <PUBCHEM_CACTVS_HBOND_DONOR>
0

> <PUBCHEM_CACTVS_ROTATABLE_BOND>
0

> <PUBCHEM_CACTVS_SUBSKEYS>
AAADcQAAODAAAAAAQAAAAAAAAAAAAAAAAAAAAAAAAAAAAAAAAAAAAAAAAAAAAAAAAAAAAAAAAAAAAAAAAAAAAAAAAAAAAAAAAAAAAAAAAAAAAAAAAAAAAAAAAAAAAAAAAAAAAAAAAAAAAAAAAAAAAAAAAA==

> <PUBCHEM_IUPAC_OPENEYE_NAME>
trisodium;arsorate

> <PUBCHEM_IUPAC_CAS_NAME>
trisodium;arsorate

> <PUBCHEM_IUPAC_NAME_MARKUP>
trisodium;arsorate

> <PUBCHEM_IUPAC_NAME>
trisodium;arsorate

> <PUBCHEM_IUPAC_SYSTEMATIC_NAME>
trisodium;arsorate

> <PUBCHEM_IUPAC_TRADITIONAL_NAME>
trisodium;arsorate

> <PUBCHEM_IUPAC_INCHI>
InChI=1S/AsH3O4.3Na/c2-1(3,4)5;;;/h(H3,2,3,4,5);;;/q;3*+1/p-3

> <PUBCHEM_IUPAC_INCHIKEY>
CDBAKLRDFBGJOX-UHFFFAOYSA-K

> <PUBCHEM_EXACT_MASS>
207.870561

> <PUBCHEM_MOLECULAR_FORMULA>
AsNa3O4

> <PUBCHEM_MOLECULAR_WEIGHT>
207.889

> <PUBCHEM_SMILES>
[O-][As](=O)([O-])[O-].[Na+].[Na+].[Na+]

> <PUBCHEM_CONNECTIVITY_SMILES>
[O-][As](=O)([O-])[O-].[Na+].[Na+].[Na+]

> <PUBCHEM_CACTVS_TPSA>
86.3

> <PUBCHEM_MONOISOTOPIC_WEIGHT>
207.870561

> <PUBCHEM_TOTAL_CHARGE>
0

> <PUBCHEM_HEAVY_ATOM_COUNT>
8

> <PUBCHEM_ATOM_DEF_STEREO_COUNT>
0

> <PUBCHEM_ATOM_UDEF_STEREO_COUNT>
0

> <PUBCHEM_BOND_DEF_STEREO_COUNT>
0

> <PUBCHEM_BOND_UDEF_STEREO_COUNT>
0

> <PUBCHEM_ISOTOPIC_ATOM_COUNT>
0

> <PUBCHEM_COMPONENT_COUNT>
4

> <PUBCHEM_CACTVS_TAUTO_COUNT>
-1

> <PUBCHEM_COORDINATE_TYPE>
1
5
255

$$$$
