21225609
  -OEChem-08152607092D

  6  4  0     0  0  0  0  0  0999 V2000
    2.8660    0.0000    0.0000 P   0  0  0  0  0  0  0  0  0  0  0  0
    4.5981    0.0000    0.0000 Na  0  3  0  0  0  0  0  0  0  0  0  0
    3.7320    0.5000    0.0000 O   0  5  0  0  0  0  0  0  0  0  0  0
    2.0000   -0.5000    0.0000 O   0  5  0  0  0  0  0  0  0  0  0  0
    2.3660    0.8660    0.0000 O   0  5  0  0  0  0  0  0  0  0  0  0
    3.3660   -0.8660    0.0000 O   0  0  0  0  0  0  0  0  0  0  0  0
  1  3  1  0  0  0  0
  1  4  1  0  0  0  0
  1  5  1  0  0  0  0
  1  6  2  0  0  0  0
M  CHG  4   2   1   3  -1   4  -1   5  -1
M  END
> <PUBCHEM_COMPOUND_CID>
21225609

> <PUBCHEM_COMPOUND_CANONICALIZED>
1

> <PUBCHEM_CACTVS_COMPLEXITY>
36.8

> <PUBCHEM_CACTVS_HBOND_ACCEPTOR>
4

> <PUBCHEM_CACTVS_HBOND_DONOR>
0

> <PUBCHEM_CACTVS_ROTATABLE_BOND>
0

> <PUBCHEM_CACTVS_SUBSKEYS>
AAADcQAAOCIAAAAAAAAAAAAAAAAAAAAAAAAAAAAAAAAAAAAAAAAAAAAAACAAAAAAAAAAAAAAABAAQAAAAIAAAAAAAAAAAAAAAAAAAAAAAAAAAAAAAAAAAAAAAAAAAAAAAAAAAAAAAAAAAAAAAAAAAAAAAA==

> <PUBCHEM_IUPAC_OPENEYE_NAME>
sodium phosphate

> <PUBCHEM_IUPAC_CAS_NAME>
sodium phosphate

> <PUBCHEM_IUPAC_NAME_MARKUP>
sodium phosphate

> <PUBCHEM_IUPAC_NAME>
sodium phosphate

> <PUBCHEM_IUPAC_SYSTEMATIC_NAME>
sodium phosphate

> <PUBCHEM_IUPAC_TRADITIONAL_NAME>
sodium phosphate

> <PUBCHEM_IUPAC_INCHI>
InChI=1S/Na.H3O4P/c;1-5(2,3)4/h;(H3,1,2,3,4)/q+1;/p-3

> <PUBCHEM_IUPAC_INCHIKEY>
AJPJDKMHJJGVTQ-UHFFFAOYSA-K

> <PUBCHEM_EXACT_MASS>
117.94318976

> <PUBCHEM_MOLECULAR_FORMULA>
NaO4P-2

> <PUBCHEM_MOLECULAR_WEIGHT>
117.961

> <PUBCHEM_SMILES>
[O-]P(=O)([O-])[O-].[Na+]

> <PUBCHEM_CONNECTIVITY_SMILES>
[O-]P(=O)([O-])[O-].[Na+]

> <PUBCHEM_CACTVS_TPSA>
86.3

> <PUBCHEM_MONOISOTOPIC_WEIGHT>
117.94318976

> <PUBCHEM_TOTAL_CHARGE>
-2

> <PUBCHEM_HEAVY_ATOM_COUNT>
6

> <PUBCHEM_ATOM_DEF_STEREO_COUNT>
0

> <PUBCHEM_ATOM_UDEF_STEREO_COUNT>
0

> <PUBCHEM_BOND_DEF_STEREO_COUNT>
0

> <PUBCHEM_BOND_UDEF_STEREO_COUNT>
0

> <PUBCHEM_ISOTOPIC_ATOM_COUNT>
0

> <PUBCHEM_COMPONENT_COUNT>
2

> <PUBCHEM_CACTVS_TAUTO_COUNT>
-1

> <PUBCHEM_COORDINATE_TYPE>
1
5
255

$$$$
