21977542
  -OEChem-08152606452D

 15  9  0     0  0  0  0  0  0999 V2000
    4.8059    1.0000    0.0000 Sn  0  0  0  0  0  0  0  0  0  0  0  0
    6.5380    1.0000    0.0000 Na  0  3  0  0  0  0  0  0  0  0  0  0
    3.0739    1.0000    0.0000 Na  0  3  0  0  0  0  0  0  0  0  0  0
    5.6720    1.5000    0.0000 O   0  5  0  0  0  0  0  0  0  0  0  0
    3.9399    1.5000    0.0000 O   0  5  0  0  0  0  0  0  0  0  0  0
    4.8059    0.0000    0.0000 O   0  0  0  0  0  0  0  0  0  0  0  0
    4.8059    3.5000    0.0000 O   0  0  0  0  0  0  0  0  0  0  0  0
    4.8059    6.0000    0.0000 O   0  0  0  0  0  0  0  0  0  0  0  0
    0.5369    3.0000    0.0000 O   0  0  0  0  0  0  0  0  0  0  0  0
    5.3429    3.8100    0.0000 H   0  0  0  0  0  0  0  0  0  0  0  0
    4.2690    3.8100    0.0000 H   0  0  0  0  0  0  0  0  0  0  0  0
    5.3429    6.3100    0.0000 H   0  0  0  0  0  0  0  0  0  0  0  0
    4.2690    6.3100    0.0000 H   0  0  0  0  0  0  0  0  0  0  0  0
    1.0739    3.3100    0.0000 H   0  0  0  0  0  0  0  0  0  0  0  0
    0.0000    3.3100    0.0000 H   0  0  0  0  0  0  0  0  0  0  0  0
  1  4  1  0  0  0  0
  1  5  1  0  0  0  0
  1  6  2  0  0  0  0
  7 10  1  0  0  0  0
  7 11  1  0  0  0  0
  8 12  1  0  0  0  0
  8 13  1  0  0  0  0
  9 14  1  0  0  0  0
  9 15  1  0  0  0  0
M  CHG  4   2   1   3   1   4  -1   5  -1
M  END
> <PUBCHEM_COMPOUND_CID>
21977542

> <PUBCHEM_COMPOUND_CANONICALIZED>
1

> <PUBCHEM_CACTVS_COMPLEXITY>
18.8

> <PUBCHEM_CACTVS_HBOND_ACCEPTOR>
6

> <PUBCHEM_CACTVS_HBOND_DONOR>
3

> <PUBCHEM_CACTVS_ROTATABLE_BOND>
0

> <PUBCHEM_CACTVS_SUBSKEYS>
AAADcYAAODAAAAAAAACAAAAAAAAAAAAAAAAAAAAAAAAAAAAAAAAAAAAACAAAAAAAAAAAAAAAAAAAAAAAAAAAAAAAAAAAAAAAAAAAAAAAAAAAAAAAAAAAAAAAAAAAAAAAAAAAAAAAAAAAAAAAAAAAAAAAAA==

> <PUBCHEM_IUPAC_OPENEYE_NAME>
disodium;dioxido(oxo)tin;trihydrate

> <PUBCHEM_IUPAC_CAS_NAME>
disodium;dioxido(oxo)tin;trihydrate

> <PUBCHEM_IUPAC_NAME_MARKUP>
disodium;dioxido(oxo)tin;trihydrate

> <PUBCHEM_IUPAC_NAME>
disodium;dioxido(oxo)tin;trihydrate

> <PUBCHEM_IUPAC_SYSTEMATIC_NAME>
disodium;bis(oxidanidyl)-oxidanylidene-tin;trihydrate

> <PUBCHEM_IUPAC_TRADITIONAL_NAME>
disodium;keto(dioxido)tin;trihydrate

> <PUBCHEM_IUPAC_INCHI>
InChI=1S/2Na.3H2O.3O.Sn/h;;3*1H2;;;;/q2*+1;;;;;2*-1;

> <PUBCHEM_IUPAC_INCHIKEY>
SFXJSNATBHJIDS-UHFFFAOYSA-N

> <PUBCHEM_EXACT_MASS>
267.898179

> <PUBCHEM_MOLECULAR_FORMULA>
H6Na2O6Sn

> <PUBCHEM_MOLECULAR_WEIGHT>
266.73

> <PUBCHEM_SMILES>
O.O.O.[O-][Sn](=O)[O-].[Na+].[Na+]

> <PUBCHEM_CONNECTIVITY_SMILES>
O.O.O.[O-][Sn](=O)[O-].[Na+].[Na+]

> <PUBCHEM_CACTVS_TPSA>
66.2

> <PUBCHEM_MONOISOTOPIC_WEIGHT>
267.898179

> <PUBCHEM_TOTAL_CHARGE>
0

> <PUBCHEM_HEAVY_ATOM_COUNT>
9

> <PUBCHEM_ATOM_DEF_STEREO_COUNT>
0

> <PUBCHEM_ATOM_UDEF_STEREO_COUNT>
0

> <PUBCHEM_BOND_DEF_STEREO_COUNT>
0

> <PUBCHEM_BOND_UDEF_STEREO_COUNT>
0

> <PUBCHEM_ISOTOPIC_ATOM_COUNT>
0

> <PUBCHEM_COMPONENT_COUNT>
6

> <PUBCHEM_CACTVS_TAUTO_COUNT>
-1

> <PUBCHEM_COORDINATE_TYPE>
1
5
255

$$$$
