23667635
  -OEChem-08152605482D

  6  4  0     0  0  0  0  0  0999 V2000
    2.8660    0.0000    0.0000 I   0  0  0  0  0  0  0  0  0  0  0  0
    4.5981    0.0000    0.0000 Na  0  3  0  0  0  0  0  0  0  0  0  0
    3.7320    0.5000    0.0000 O   0  5  0  0  0  0  0  0  0  0  0  0
    2.0000   -0.5000    0.0000 O   0  0  0  0  0  0  0  0  0  0  0  0
    2.3660    0.8660    0.0000 O   0  0  0  0  0  0  0  0  0  0  0  0
    3.3660   -0.8660    0.0000 O   0  0  0  0  0  0  0  0  0  0  0  0
  1  3  1  0  0  0  0
  1  4  2  0  0  0  0
  1  5  2  0  0  0  0
  1  6  2  0  0  0  0
M  CHG  2   2   1   3  -1
M  END
> <PUBCHEM_COMPOUND_CID>
23667635

> <PUBCHEM_COMPOUND_CANONICALIZED>
1

> <PUBCHEM_CACTVS_COMPLEXITY>
118

> <PUBCHEM_CACTVS_HBOND_ACCEPTOR>
4

> <PUBCHEM_CACTVS_HBOND_DONOR>
0

> <PUBCHEM_CACTVS_ROTATABLE_BOND>
0

> <PUBCHEM_CACTVS_SUBSKEYS>
AAADcQAAOCAAAgAAAAAAAAAAAAAAAAAAAAAAAAAAAAAAAAAAAAAAAAAAAAAAAAAAAAAAAAAAAAAAAAAAAAAAAAAAAAAAAAAAAAAAAAAAAAAAAAAAAAAAAAAAAAAAAAAAAAAAAAAAAAAAAAAAAAAAAAAAAA==

> <PUBCHEM_IUPAC_OPENEYE_NAME>
sodium periodate

> <PUBCHEM_IUPAC_CAS_NAME>
sodium periodate

> <PUBCHEM_IUPAC_NAME_MARKUP>
sodium periodate

> <PUBCHEM_IUPAC_NAME>
sodium periodate

> <PUBCHEM_IUPAC_SYSTEMATIC_NAME>
sodium periodate

> <PUBCHEM_IUPAC_TRADITIONAL_NAME>
sodium periodate

> <PUBCHEM_IUPAC_INCHI>
InChI=1S/HIO4.Na/c2-1(3,4)5;/h(H,2,3,4,5);/q;+1/p-1

> <PUBCHEM_IUPAC_INCHIKEY>
JQWHASGSAFIOCM-UHFFFAOYSA-M

> <PUBCHEM_EXACT_MASS>
213.87390

> <PUBCHEM_MOLECULAR_FORMULA>
INaO4

> <PUBCHEM_MOLECULAR_WEIGHT>
213.892

> <PUBCHEM_SMILES>
[O-]I(=O)(=O)=O.[Na+]

> <PUBCHEM_CONNECTIVITY_SMILES>
[O-]I(=O)(=O)=O.[Na+]

> <PUBCHEM_CACTVS_TPSA>
74.3

> <PUBCHEM_MONOISOTOPIC_WEIGHT>
213.87390

> <PUBCHEM_TOTAL_CHARGE>
0

> <PUBCHEM_HEAVY_ATOM_COUNT>
6

> <PUBCHEM_ATOM_DEF_STEREO_COUNT>
0

> <PUBCHEM_ATOM_UDEF_STEREO_COUNT>
0

> <PUBCHEM_BOND_DEF_STEREO_COUNT>
0

> <PUBCHEM_BOND_UDEF_STEREO_COUNT>
0

> <PUBCHEM_ISOTOPIC_ATOM_COUNT>
0

> <PUBCHEM_COMPONENT_COUNT>
2

> <PUBCHEM_CACTVS_TAUTO_COUNT>
-1

> <PUBCHEM_NONSTANDARDBOND>
2  3  7

> <PUBCHEM_COORDINATE_TYPE>
1
5
255

$$$$
