22558567
  -OEChem-08152606242D

  7  4  0     0  0  0  0  0  0999 V2000
    3.6730    0.0000    0.0000 Mn  0  0  0  0  0  0  0  0  0  0  0  0
    5.3461    0.4483    0.0000 Na  0  3  0  0  0  0  0  0  0  0  0  0
    2.0000   -0.4483    0.0000 Na  0  3  0  0  0  0  0  0  0  0  0  0
    4.3801    0.7071    0.0000 O   0  5  0  0  0  0  0  0  0  0  0  0
    2.9659   -0.7071    0.0000 O   0  5  0  0  0  0  0  0  0  0  0  0
    2.9659    0.7071    0.0000 O   0  0  0  0  0  0  0  0  0  0  0  0
    4.3801   -0.7071    0.0000 O   0  0  0  0  0  0  0  0  0  0  0  0
  1  4  1  0  0  0  0
  1  5  1  0  0  0  0
  1  6  2  0  0  0  0
  1  7  2  0  0  0  0
M  CHG  4   2   1   3   1   4  -1   5  -1
M  END
> <PUBCHEM_COMPOUND_CID>
22558567

> <PUBCHEM_COMPOUND_CANONICALIZED>
1

> <PUBCHEM_CACTVS_COMPLEXITY>
62.2

> <PUBCHEM_CACTVS_HBOND_ACCEPTOR>
4

> <PUBCHEM_CACTVS_HBOND_DONOR>
0

> <PUBCHEM_CACTVS_ROTATABLE_BOND>
0

> <PUBCHEM_CACTVS_SUBSKEYS>
AAADcQAAODAAAABAAAAAAAAAAAAAAAAAAAAAAAAAAAAAAAAAAAAAAAAAAAAAAAAAAAAAAAAAAAAAAAAAAAAAAAAAAAAAAAAAAAAAAAAAAAAAAAAAAAAAAAAAAAAAAAAAAAAAAAAAAAAAAAAAAAAAAAAAAA==

> <PUBCHEM_IUPAC_OPENEYE_NAME>
disodium;dioxido(dioxo)manganese

> <PUBCHEM_IUPAC_CAS_NAME>
disodium;dioxido(dioxo)manganese

> <PUBCHEM_IUPAC_NAME_MARKUP>
disodium;dioxido(dioxo)manganese

> <PUBCHEM_IUPAC_NAME>
disodium;dioxido(dioxo)manganese

> <PUBCHEM_IUPAC_SYSTEMATIC_NAME>
disodium;bis(oxidanidyl)-bis(oxidanylidene)manganese

> <PUBCHEM_IUPAC_TRADITIONAL_NAME>
disodium;diketo(dioxido)manganese

> <PUBCHEM_IUPAC_INCHI>
InChI=1S/Mn.2Na.4O/q;2*+1;;;2*-1

> <PUBCHEM_IUPAC_INCHIKEY>
BNBLBRISEAQIHU-UHFFFAOYSA-N

> <PUBCHEM_EXACT_MASS>
164.897240

> <PUBCHEM_MOLECULAR_FORMULA>
MnNa2O4

> <PUBCHEM_MOLECULAR_WEIGHT>
164.915

> <PUBCHEM_SMILES>
[O-][Mn](=O)(=O)[O-].[Na+].[Na+]

> <PUBCHEM_CONNECTIVITY_SMILES>
[O-][Mn](=O)(=O)[O-].[Na+].[Na+]

> <PUBCHEM_CACTVS_TPSA>
80.3

> <PUBCHEM_MONOISOTOPIC_WEIGHT>
164.897240

> <PUBCHEM_TOTAL_CHARGE>
0

> <PUBCHEM_HEAVY_ATOM_COUNT>
7

> <PUBCHEM_ATOM_DEF_STEREO_COUNT>
0

> <PUBCHEM_ATOM_UDEF_STEREO_COUNT>
0

> <PUBCHEM_BOND_DEF_STEREO_COUNT>
0

> <PUBCHEM_BOND_UDEF_STEREO_COUNT>
0

> <PUBCHEM_ISOTOPIC_ATOM_COUNT>
0

> <PUBCHEM_COMPONENT_COUNT>
3

> <PUBCHEM_CACTVS_TAUTO_COUNT>
-1

> <PUBCHEM_COORDINATE_TYPE>
1
5
255

$$$$
