9877645
  -OEChem-08152606322D

  2  0  0     0  0  0  0  0  0999 V2000
    3.0000    0.0000    0.0000 Sn  0  2  0  0  0  0  0  0  0  0  0  0
    2.0000    0.0000    0.0000 Se  0  6  0  0  0  0  0  0  0  0  0  0
M  CHG  2   1   2   2  -2
M  END
> <PUBCHEM_COMPOUND_CID>
9877645

> <PUBCHEM_COMPOUND_CANONICALIZED>
1

> <PUBCHEM_CACTVS_COMPLEXITY>
0

> <PUBCHEM_CACTVS_HBOND_ACCEPTOR>
1

> <PUBCHEM_CACTVS_HBOND_DONOR>
0

> <PUBCHEM_CACTVS_ROTATABLE_BOND>
0

> <PUBCHEM_CACTVS_SUBSKEYS>
AAADcQAAAAAAAAAAIACAAAAAAAAAAAAAAAAAAAAAAAAAAAAAAAAAAAAAAAAAAAAAAAAAAAAAAAAAAAAAAAAAAAAAAAAAAAAAAAAAAAAAAAAAAAAAAAAAAAAAAAAAAAAAAAAAAAAAAAAAAAAAAAAAAAAAAA==

> <PUBCHEM_IUPAC_OPENEYE_NAME>
stannous selenium(2-)

> <PUBCHEM_IUPAC_CAS_NAME>
selenium(2-);tin(2+)

> <PUBCHEM_IUPAC_NAME_MARKUP>
selenium(2-);tin(2+)

> <PUBCHEM_IUPAC_NAME>
selenium(2-);tin(2+)

> <PUBCHEM_IUPAC_SYSTEMATIC_NAME>
selenium(2-);tin(2+)

> <PUBCHEM_IUPAC_TRADITIONAL_NAME>
stannous selenium(2-)

> <PUBCHEM_IUPAC_INCHI>
InChI=1S/Se.Sn/q-2;+2

> <PUBCHEM_IUPAC_INCHIKEY>
LYZMBUYUNBCSMW-UHFFFAOYSA-N

> <PUBCHEM_EXACT_MASS>
199.81872

> <PUBCHEM_MOLECULAR_FORMULA>
SeSn

> <PUBCHEM_MOLECULAR_WEIGHT>
197.68

> <PUBCHEM_SMILES>
[Se-2].[Sn+2]

> <PUBCHEM_CONNECTIVITY_SMILES>
[Se-2].[Sn+2]

> <PUBCHEM_CACTVS_TPSA>
0

> <PUBCHEM_MONOISOTOPIC_WEIGHT>
199.81872

> <PUBCHEM_TOTAL_CHARGE>
0

> <PUBCHEM_HEAVY_ATOM_COUNT>
2

> <PUBCHEM_ATOM_DEF_STEREO_COUNT>
0

> <PUBCHEM_ATOM_UDEF_STEREO_COUNT>
0

> <PUBCHEM_BOND_DEF_STEREO_COUNT>
0

> <PUBCHEM_BOND_UDEF_STEREO_COUNT>
0

> <PUBCHEM_ISOTOPIC_ATOM_COUNT>
0

> <PUBCHEM_COMPONENT_COUNT>
2

> <PUBCHEM_CACTVS_TAUTO_COUNT>
-1

> <PUBCHEM_COORDINATE_TYPE>
1
5
255

$$$$
