3084026
  -OEChem-08152604282D

  6  4  0     0  0  0  0  0  0999 V2000
    2.0000   -1.0000    0.0000 Sr  0  2  0  0  0  0  0  0  0  0  0  0
    3.0000    0.0000    0.0000 S   0  0  0  0  0  0  0  0  0  0  0  0
    2.0000    0.0000    0.0000 O   0  5  0  0  0  0  0  0  0  0  0  0
    3.0000   -1.0000    0.0000 O   0  5  0  0  0  0  0  0  0  0  0  0
    4.0000   -0.0000    0.0000 O   0  0  0  0  0  0  0  0  0  0  0  0
    3.0000    1.0000    0.0000 O   0  0  0  0  0  0  0  0  0  0  0  0
  2  3  1  0  0  0  0
  2  4  1  0  0  0  0
  2  5  2  0  0  0  0
  2  6  2  0  0  0  0
M  CHG  3   1   2   3  -1   4  -1
M  END
> <PUBCHEM_COMPOUND_CID>
3084026

> <PUBCHEM_COMPOUND_CANONICALIZED>
1

> <PUBCHEM_CACTVS_COMPLEXITY>
62.2

> <PUBCHEM_CACTVS_HBOND_ACCEPTOR>
4

> <PUBCHEM_CACTVS_HBOND_DONOR>
0

> <PUBCHEM_CACTVS_ROTATABLE_BOND>
0

> <PUBCHEM_CACTVS_SUBSKEYS>
AAADcQAAOABAAAAABAAAAAAAAAAAAAAAAAAAAAAAAAAAAAAAAAAAAAAAAAAAAAAAAAAAAAAAAAAAAAAAADAAAAAAAAAAAAAAAAAAAAAAAAAAAAAAAAAAAAAAAAAAAAAAAAAAAAAAAAAAAAAAAAAAAAAAAA==

> <PUBCHEM_IUPAC_OPENEYE_NAME>
strontium sulfate

> <PUBCHEM_IUPAC_CAS_NAME>
strontium sulfate

> <PUBCHEM_IUPAC_NAME_MARKUP>
strontium sulfate

> <PUBCHEM_IUPAC_NAME>
strontium sulfate

> <PUBCHEM_IUPAC_SYSTEMATIC_NAME>
strontium sulfate

> <PUBCHEM_IUPAC_TRADITIONAL_NAME>
strontium sulfate

> <PUBCHEM_IUPAC_INCHI>
InChI=1S/H2O4S.Sr/c1-5(2,3)4;/h(H2,1,2,3,4);/q;+2/p-2

> <PUBCHEM_IUPAC_INCHIKEY>
UBXAKNTVXQMEAG-UHFFFAOYSA-L

> <PUBCHEM_EXACT_MASS>
183.85734190

> <PUBCHEM_MOLECULAR_FORMULA>
O4SSr

> <PUBCHEM_MOLECULAR_WEIGHT>
183.69

> <PUBCHEM_SMILES>
[O-]S(=O)(=O)[O-].[Sr+2]

> <PUBCHEM_CONNECTIVITY_SMILES>
[O-]S(=O)(=O)[O-].[Sr+2]

> <PUBCHEM_CACTVS_TPSA>
88.6

> <PUBCHEM_MONOISOTOPIC_WEIGHT>
183.85734190

> <PUBCHEM_TOTAL_CHARGE>
0

> <PUBCHEM_HEAVY_ATOM_COUNT>
6

> <PUBCHEM_ATOM_DEF_STEREO_COUNT>
0

> <PUBCHEM_ATOM_UDEF_STEREO_COUNT>
0

> <PUBCHEM_BOND_DEF_STEREO_COUNT>
0

> <PUBCHEM_BOND_UDEF_STEREO_COUNT>
0

> <PUBCHEM_ISOTOPIC_ATOM_COUNT>
0

> <PUBCHEM_COMPONENT_COUNT>
2

> <PUBCHEM_CACTVS_TAUTO_COUNT>
-1

> <PUBCHEM_COORDINATE_TYPE>
1
5
255

$$$$
