178409483
  -OEChem-08152607102D

  6  4  0     0  0  0  0  0  0999 V2000
    2.0000   -1.0000    0.0000 Sr  0  2  0  0  0  0  0  0  0  0  0  0
    3.0000    0.0000    0.0000 Si  0  0  0  0  0  0  0  0  0  0  0  0
    2.0000    0.0000    0.0000 O   0  5  0  0  0  0  0  0  0  0  0  0
    3.0000   -1.0000    0.0000 O   0  5  0  0  0  0  0  0  0  0  0  0
    4.0000   -0.0000    0.0000 O   0  5  0  0  0  0  0  0  0  0  0  0
    3.0000    1.0000    0.0000 O   0  5  0  0  0  0  0  0  0  0  0  0
  2  3  1  0  0  0  0
  2  4  1  0  0  0  0
  2  5  1  0  0  0  0
  2  6  1  0  0  0  0
M  CHG  5   1   2   3  -1   4  -1   5  -1   6  -1
M  END
> <PUBCHEM_COMPOUND_CID>
178409483

> <PUBCHEM_COMPOUND_CANONICALIZED>
1

> <PUBCHEM_CACTVS_COMPLEXITY>
19.1

> <PUBCHEM_CACTVS_HBOND_ACCEPTOR>
4

> <PUBCHEM_CACTVS_HBOND_DONOR>
0

> <PUBCHEM_CACTVS_ROTATABLE_BOND>
0

> <PUBCHEM_CACTVS_SUBSKEYS>
AAADcQAAOAgAAAAABAAAAAAAAAAAAAAAAAAAAAAAAAAAAAAAAAAAAAAAAEAAAAAAAAAAAAAAAAAAAAAAAAAAAAAAAAAAAAAAAAAAAAAAAAAAAAAAAAAAAAAAAAAAAAAAAAAAAAAAAAAAAAAAAAAAAAAAAA==

> <PUBCHEM_IUPAC_OPENEYE_NAME>
strontium silicate

> <PUBCHEM_IUPAC_CAS_NAME>
strontium silicate

> <PUBCHEM_IUPAC_NAME_MARKUP>
strontium silicate

> <PUBCHEM_IUPAC_NAME>
strontium silicate

> <PUBCHEM_IUPAC_SYSTEMATIC_NAME>
strontium silicate

> <PUBCHEM_IUPAC_TRADITIONAL_NAME>
strontium orthosilicate

> <PUBCHEM_IUPAC_INCHI>
InChI=1S/O4Si.Sr/c1-5(2,3)4;/q-4;+2

> <PUBCHEM_IUPAC_INCHIKEY>
OCZNQBALQVCIGE-UHFFFAOYSA-N

> <PUBCHEM_EXACT_MASS>
179.86219726

> <PUBCHEM_MOLECULAR_FORMULA>
O4SiSr-2

> <PUBCHEM_MOLECULAR_WEIGHT>
179.70

> <PUBCHEM_SMILES>
[O-][Si]([O-])([O-])[O-].[Sr+2]

> <PUBCHEM_CONNECTIVITY_SMILES>
[O-][Si]([O-])([O-])[O-].[Sr+2]

> <PUBCHEM_CACTVS_TPSA>
92.2

> <PUBCHEM_MONOISOTOPIC_WEIGHT>
179.86219726

> <PUBCHEM_TOTAL_CHARGE>
-2

> <PUBCHEM_HEAVY_ATOM_COUNT>
6

> <PUBCHEM_ATOM_DEF_STEREO_COUNT>
0

> <PUBCHEM_ATOM_UDEF_STEREO_COUNT>
0

> <PUBCHEM_BOND_DEF_STEREO_COUNT>
0

> <PUBCHEM_BOND_UDEF_STEREO_COUNT>
0

> <PUBCHEM_ISOTOPIC_ATOM_COUNT>
0

> <PUBCHEM_COMPONENT_COUNT>
2

> <PUBCHEM_CACTVS_TAUTO_COUNT>
-1

> <PUBCHEM_COORDINATE_TYPE>
1
5
255

$$$$
