25302
  -OEChem-08152606262D

  3  0  0     0  0  0  0  0  0999 V2000
    2.8660   -0.2500    0.0000 Sr  0  2  0  0  0  0  0  0  0  0  0  0
    3.7321    0.2500    0.0000 Br  0  5  0  0  0  0  0  0  0  0  0  0
    2.0000    0.2500    0.0000 Br  0  5  0  0  0  0  0  0  0  0  0  0
M  CHG  3   1   2   2  -1   3  -1
M  END
> <PUBCHEM_COMPOUND_CID>
25302

> <PUBCHEM_COMPOUND_CANONICALIZED>
1

> <PUBCHEM_CACTVS_COMPLEXITY>
2.8

> <PUBCHEM_CACTVS_HBOND_ACCEPTOR>
2

> <PUBCHEM_CACTVS_HBOND_DONOR>
0

> <PUBCHEM_CACTVS_ROTATABLE_BOND>
0

> <PUBCHEM_CACTVS_SUBSKEYS>
AAADcQAAAAAAGAAABAAAAAAAAAAAAAAAAAAAAAAAAAAAAAAAAAAAAAAAAAAAAAAAAAAAAAAAAAAAAAAAAAAAAAAAAAAAAAAAAAAAAAAAAAAAAAAAAAAAAAAAAAAAAAAAAAAAAAAAAAAAAAAAAAAAAAAAAA==

> <PUBCHEM_IUPAC_OPENEYE_NAME>
strontium dibromide

> <PUBCHEM_IUPAC_CAS_NAME>
strontium dibromide

> <PUBCHEM_IUPAC_NAME_MARKUP>
strontium dibromide

> <PUBCHEM_IUPAC_NAME>
strontium dibromide

> <PUBCHEM_IUPAC_SYSTEMATIC_NAME>
strontium dibromide

> <PUBCHEM_IUPAC_TRADITIONAL_NAME>
strontium dibromide

> <PUBCHEM_IUPAC_INCHI>
InChI=1S/2BrH.Sr/h2*1H;/q;;+2/p-2

> <PUBCHEM_IUPAC_INCHIKEY>
YJPVTCSBVRMESK-UHFFFAOYSA-L

> <PUBCHEM_EXACT_MASS>
247.74024

> <PUBCHEM_MOLECULAR_FORMULA>
Br2Sr

> <PUBCHEM_MOLECULAR_WEIGHT>
247.43

> <PUBCHEM_SMILES>
[Br-].[Br-].[Sr+2]

> <PUBCHEM_CONNECTIVITY_SMILES>
[Br-].[Br-].[Sr+2]

> <PUBCHEM_CACTVS_TPSA>
0

> <PUBCHEM_MONOISOTOPIC_WEIGHT>
245.74229

> <PUBCHEM_TOTAL_CHARGE>
0

> <PUBCHEM_HEAVY_ATOM_COUNT>
3

> <PUBCHEM_ATOM_DEF_STEREO_COUNT>
0

> <PUBCHEM_ATOM_UDEF_STEREO_COUNT>
0

> <PUBCHEM_BOND_DEF_STEREO_COUNT>
0

> <PUBCHEM_BOND_UDEF_STEREO_COUNT>
0

> <PUBCHEM_ISOTOPIC_ATOM_COUNT>
0

> <PUBCHEM_COMPONENT_COUNT>
3

> <PUBCHEM_CACTVS_TAUTO_COUNT>
-1

> <PUBCHEM_NONSTANDARDBOND>
1  2  6
1  3  6

> <PUBCHEM_COORDINATE_TYPE>
1
5
255

$$$$
