6336983
  -OEChem-08152606322D

 15  8  0     0  0  0  0  0  0999 V2000
    0.0000    4.3239    0.0000 Sr  0  0  0  0  0 15  0  0  0  0  0  0
    2.7869    6.1477    0.0000 Sr  0  0  0  0  0 15  0  0  0  0  0  0
    2.7869    8.6477    0.0000 Sr  0  0  0  0  0 15  0  0  0  0  0  0
    5.5739    4.3239    0.0000 Sr  0  0  0  0  0 15  0  0  0  0  0  0
    8.0739    4.3239    0.0000 Sr  0  0  0  0  0 15  0  0  0  0  0  0
    3.0369    0.5369    0.0000 C   0  0  0  0  0  0  0  0  0  0  0  0
    3.0369    3.6108    0.0000 C   0  0  0  0  0  0  0  0  0  0  0  0
    3.5739    0.8469    0.0000 H   0  0  0  0  0  0  0  0  0  0  0  0
    2.5000    0.2269    0.0000 H   0  0  0  0  0  0  0  0  0  0  0  0
    2.7269    1.0739    0.0000 H   0  0  0  0  0  0  0  0  0  0  0  0
    3.3469    0.0000    0.0000 H   0  0  0  0  0  0  0  0  0  0  0  0
    3.5739    3.9208    0.0000 H   0  0  0  0  0  0  0  0  0  0  0  0
    2.5000    3.3008    0.0000 H   0  0  0  0  0  0  0  0  0  0  0  0
    2.7269    4.1477    0.0000 H   0  0  0  0  0  0  0  0  0  0  0  0
    3.3469    3.0739    0.0000 H   0  0  0  0  0  0  0  0  0  0  0  0
  6  8  1  0  0  0  0
  6  9  1  0  0  0  0
  6 10  1  0  0  0  0
  6 11  1  0  0  0  0
  7 12  1  0  0  0  0
  7 13  1  0  0  0  0
  7 14  1  0  0  0  0
  7 15  1  0  0  0  0
M  END
> <PUBCHEM_COMPOUND_CID>
6336983

> <PUBCHEM_COMPOUND_CANONICALIZED>
1

> <PUBCHEM_CACTVS_COMPLEXITY>
0

> <PUBCHEM_CACTVS_HBOND_ACCEPTOR>
0

> <PUBCHEM_CACTVS_HBOND_DONOR>
0

> <PUBCHEM_CACTVS_ROTATABLE_BOND>
0

> <PUBCHEM_CACTVS_SUBSKEYS>
AAADccBAAAAAAAAABAAAAAAAAAAAAAAAAAAAAAAAAAAAAAAAAAAAEAAAAAAAAAAAAAACAAAAAAAAAAAAAAAAAAAAAAAAAAAAAAAAAAAAAAAAAAAAAAAAAAAAAAAAAAAAAAAAAAAAAAAAAAAAAAAAAAAAAA==

> <PUBCHEM_IUPAC_INCHI>
InChI=1S/2CH4.5Sr/h2*1H4;;;;;

> <PUBCHEM_IUPAC_INCHIKEY>
NHSUTOPMUUWURA-UHFFFAOYSA-N

> <PUBCHEM_EXACT_MASS>
471.5906615

> <PUBCHEM_MOLECULAR_FORMULA>
C2H8Sr5

> <PUBCHEM_MOLECULAR_WEIGHT>
470.2

> <PUBCHEM_SMILES>
C.C.[Sr].[Sr].[Sr].[Sr].[Sr]

> <PUBCHEM_CONNECTIVITY_SMILES>
C.C.[Sr].[Sr].[Sr].[Sr].[Sr]

> <PUBCHEM_CACTVS_TPSA>
0

> <PUBCHEM_MONOISOTOPIC_WEIGHT>
471.5906615

> <PUBCHEM_TOTAL_CHARGE>
0

> <PUBCHEM_HEAVY_ATOM_COUNT>
7

> <PUBCHEM_ATOM_DEF_STEREO_COUNT>
0

> <PUBCHEM_ATOM_UDEF_STEREO_COUNT>
0

> <PUBCHEM_BOND_DEF_STEREO_COUNT>
0

> <PUBCHEM_BOND_UDEF_STEREO_COUNT>
0

> <PUBCHEM_ISOTOPIC_ATOM_COUNT>
0

> <PUBCHEM_COMPONENT_COUNT>
7

> <PUBCHEM_CACTVS_TAUTO_COUNT>
-1

> <PUBCHEM_COORDINATE_TYPE>
1
5
255

$$$$
