5483631
  -OEChem-08152606232D

  3  0  0     0  0  0  0  0  0999 V2000
    2.5369    0.1550    0.0000 Sr  0  2  0  0  0  0  0  0  0  0  0  0
    2.0000   -0.1550    0.0000 H   0  5  0  0  0  0  0  0  0  0  0  0
    3.0739   -0.1550    0.0000 H   0  5  0  0  0  0  0  0  0  0  0  0
M  CHG  3   1   2   2  -1   3  -1
M  END
> <PUBCHEM_COMPOUND_CID>
5483631

> <PUBCHEM_COMPOUND_CANONICALIZED>
1

> <PUBCHEM_CACTVS_COMPLEXITY>
0

> <PUBCHEM_CACTVS_HBOND_ACCEPTOR>
2

> <PUBCHEM_CACTVS_HBOND_DONOR>
0

> <PUBCHEM_CACTVS_ROTATABLE_BOND>
0

> <PUBCHEM_CACTVS_SUBSKEYS>
AAADcQAAAAAAAAAABAAAAAAAAAAAAAAAAAAAAAAAAAAAAAAAAAAAAAAAAAAAAAAAAAAAAAAAAAAAAAAAAAAAAAAAAAAAAAAAAAAAAAAAAAAAAAAAAAAAAAAAAAAAAAAAAAAAAAAAAAAAAAAAAAAAAAAAAA==

> <PUBCHEM_IUPAC_OPENEYE_NAME>
strontium hydride

> <PUBCHEM_IUPAC_CAS_NAME>
strontium hydride

> <PUBCHEM_IUPAC_NAME_MARKUP>
strontium hydride

> <PUBCHEM_IUPAC_NAME>
strontium hydride

> <PUBCHEM_IUPAC_SYSTEMATIC_NAME>
strontium hydride

> <PUBCHEM_IUPAC_TRADITIONAL_NAME>
strontium hydride

> <PUBCHEM_IUPAC_INCHI>
InChI=1S/Sr.2H/q+2;2*-1

> <PUBCHEM_IUPAC_INCHIKEY>
ONYCUIABXVBCTR-UHFFFAOYSA-N

> <PUBCHEM_EXACT_MASS>
89.92126232

> <PUBCHEM_MOLECULAR_FORMULA>
H2Sr

> <PUBCHEM_MOLECULAR_WEIGHT>
89.64

> <PUBCHEM_SMILES>
[H-].[H-].[Sr+2]

> <PUBCHEM_CONNECTIVITY_SMILES>
[H-].[H-].[Sr+2]

> <PUBCHEM_CACTVS_TPSA>
0

> <PUBCHEM_MONOISOTOPIC_WEIGHT>
89.92126232

> <PUBCHEM_TOTAL_CHARGE>
0

> <PUBCHEM_HEAVY_ATOM_COUNT>
1

> <PUBCHEM_ATOM_DEF_STEREO_COUNT>
0

> <PUBCHEM_ATOM_UDEF_STEREO_COUNT>
0

> <PUBCHEM_BOND_DEF_STEREO_COUNT>
0

> <PUBCHEM_BOND_UDEF_STEREO_COUNT>
0

> <PUBCHEM_ISOTOPIC_ATOM_COUNT>
0

> <PUBCHEM_COMPONENT_COUNT>
3

> <PUBCHEM_CACTVS_TAUTO_COUNT>
-1

> <PUBCHEM_COORDINATE_TYPE>
1
5
255

$$$$
