83582
  -OEChem-08152605382D

  4  3  0     0  0  0  0  0  0999 V2000
    2.8660    0.2500    0.0000 Ta  0  0  0  0  0  0  0  0  0  0  0  0
    3.7321    0.7500    0.0000 Cl  0  0  0  0  0  0  0  0  0  0  0  0
    2.0000    0.7500    0.0000 Cl  0  0  0  0  0  0  0  0  0  0  0  0
    2.8660   -0.7500    0.0000 Cl  0  0  0  0  0  0  0  0  0  0  0  0
  1  2  1  0  0  0  0
  1  3  1  0  0  0  0
  1  4  1  0  0  0  0
M  END
> <PUBCHEM_COMPOUND_CID>
83582

> <PUBCHEM_COMPOUND_CANONICALIZED>
1

> <PUBCHEM_CACTVS_COMPLEXITY>
8

> <PUBCHEM_CACTVS_HBOND_ACCEPTOR>
0

> <PUBCHEM_CACTVS_HBOND_DONOR>
0

> <PUBCHEM_CACTVS_ROTATABLE_BOND>
0

> <PUBCHEM_CACTVS_SUBSKEYS>
AAADcQAAAAAGAAAAAAAAgAAAAAAAAAAAAAAAAAAAAAAAAAAAAAAAAAAAAAAAAAAAAAAAAAAAAAAAAAAAAAAAAAAAAAAAAAAAAAAAAAAAAAAAAAAAAAAAAAAAAAAAAAAAAAAAAAAAAAAAAAAAAAAAAAAAAA==

> <PUBCHEM_IUPAC_OPENEYE_NAME>
trichlorotantalum

> <PUBCHEM_IUPAC_CAS_NAME>
trichlorotantalum

> <PUBCHEM_IUPAC_NAME_MARKUP>
trichlorotantalum

> <PUBCHEM_IUPAC_NAME>
trichlorotantalum

> <PUBCHEM_IUPAC_SYSTEMATIC_NAME>
tris(chloranyl)tantalum

> <PUBCHEM_IUPAC_TRADITIONAL_NAME>
trichlorotantalum

> <PUBCHEM_IUPAC_INCHI>
InChI=1S/3ClH.Ta/h3*1H;/q;;;+3/p-3

> <PUBCHEM_IUPAC_INCHIKEY>
UDKRLEXYBPHRQF-UHFFFAOYSA-K

> <PUBCHEM_EXACT_MASS>
285.85456

> <PUBCHEM_MOLECULAR_FORMULA>
Cl3Ta

> <PUBCHEM_MOLECULAR_WEIGHT>
287.30

> <PUBCHEM_SMILES>
Cl[Ta](Cl)Cl

> <PUBCHEM_CONNECTIVITY_SMILES>
Cl[Ta](Cl)Cl

> <PUBCHEM_CACTVS_TPSA>
0

> <PUBCHEM_MONOISOTOPIC_WEIGHT>
285.85456

> <PUBCHEM_TOTAL_CHARGE>
0

> <PUBCHEM_HEAVY_ATOM_COUNT>
4

> <PUBCHEM_ATOM_DEF_STEREO_COUNT>
0

> <PUBCHEM_ATOM_UDEF_STEREO_COUNT>
0

> <PUBCHEM_BOND_DEF_STEREO_COUNT>
0

> <PUBCHEM_BOND_UDEF_STEREO_COUNT>
0

> <PUBCHEM_ISOTOPIC_ATOM_COUNT>
0

> <PUBCHEM_COMPONENT_COUNT>
1

> <PUBCHEM_CACTVS_TAUTO_COUNT>
-1

> <PUBCHEM_COORDINATE_TYPE>
1
5
255

$$$$
