161466357
  -OEChem-08152605412D

  2  0  0     0  0  0  0  0  0999 V2000
    0.0000    2.5000    0.0000 Ta  0  0  0  0  0  0  0  0  0  0  0  0
    0.0000    0.0000    0.0000 As  0  0  0  0  0 15  0  0  0  0  0  0
M  END
> <PUBCHEM_COMPOUND_CID>
161466357

> <PUBCHEM_COMPOUND_CANONICALIZED>
1

> <PUBCHEM_CACTVS_COMPLEXITY>
0

> <PUBCHEM_CACTVS_HBOND_ACCEPTOR>
0

> <PUBCHEM_CACTVS_HBOND_DONOR>
0

> <PUBCHEM_CACTVS_ROTATABLE_BOND>
0

> <PUBCHEM_CACTVS_SUBSKEYS>
AAADcQAAAAAAAAAAQAAAgAAAAAAAAAAAAAAAAAAAAAAAAAAAAAAAAAAAAAAAAAAAAAAAAAAAAAAAAAAAAAAAAAAAAAAAAAAAAAAAAAAAAAAAAAAAAAAAAAAAAAAAAAAAAAAAAAAAAAAAAAAAAAAAAAAAAA==

> <PUBCHEM_IUPAC_OPENEYE_NAME>
arsenic;tantalum

> <PUBCHEM_IUPAC_CAS_NAME>
arsenic;tantalum

> <PUBCHEM_IUPAC_NAME_MARKUP>
arsenic;tantalum

> <PUBCHEM_IUPAC_NAME>
arsenic;tantalum

> <PUBCHEM_IUPAC_SYSTEMATIC_NAME>
arsenic;tantalum

> <PUBCHEM_IUPAC_TRADITIONAL_NAME>
arsenic;tantalum

> <PUBCHEM_IUPAC_INCHI>
InChI=1S/As.Ta

> <PUBCHEM_IUPAC_INCHIKEY>
WCMKFCQUZDOHAQ-UHFFFAOYSA-N

> <PUBCHEM_EXACT_MASS>
255.86959

> <PUBCHEM_MOLECULAR_FORMULA>
AsTa

> <PUBCHEM_MOLECULAR_WEIGHT>
255.8695

> <PUBCHEM_SMILES>
[As].[Ta]

> <PUBCHEM_CONNECTIVITY_SMILES>
[As].[Ta]

> <PUBCHEM_CACTVS_TPSA>
0

> <PUBCHEM_MONOISOTOPIC_WEIGHT>
255.86959

> <PUBCHEM_TOTAL_CHARGE>
0

> <PUBCHEM_HEAVY_ATOM_COUNT>
2

> <PUBCHEM_ATOM_DEF_STEREO_COUNT>
0

> <PUBCHEM_ATOM_UDEF_STEREO_COUNT>
0

> <PUBCHEM_BOND_DEF_STEREO_COUNT>
0

> <PUBCHEM_BOND_UDEF_STEREO_COUNT>
0

> <PUBCHEM_ISOTOPIC_ATOM_COUNT>
0

> <PUBCHEM_COMPONENT_COUNT>
2

> <PUBCHEM_CACTVS_TAUTO_COUNT>
-1

> <PUBCHEM_COORDINATE_TYPE>
1
5
255

$$$$
