84598
  -OEChem-08152605152D

  6  0  0     0  0  0  0  0  0999 V2000
    0.8660    0.8660    0.0000 Ta  0  0  0  0  0  0  0  0  0  0  0  0
    1.7321    1.3660    0.0000 I   0  5  0  0  0  0  0  0  0  0  0  0
    0.0000    0.3660    0.0000 I   0  5  0  0  0  0  0  0  0  0  0  0
    0.3660    1.7321    0.0000 I   0  5  0  0  0  0  0  0  0  0  0  0
    1.3660    0.0000    0.0000 I   0  5  0  0  0  0  0  0  0  0  0  0
    0.6160    3.7321    0.0000 I   0  5  0  0  0  0  0  0  0  0  0  0
M  CHG  6   1   5   2  -1   3  -1   4  -1   5  -1   6  -1
M  END
> <PUBCHEM_COMPOUND_CID>
84598

> <PUBCHEM_COMPOUND_CANONICALIZED>
1

> <PUBCHEM_CACTVS_COMPLEXITY>
0

> <PUBCHEM_CACTVS_HBOND_ACCEPTOR>
5

> <PUBCHEM_CACTVS_HBOND_DONOR>
0

> <PUBCHEM_CACTVS_ROTATABLE_BOND>
0

> <PUBCHEM_CACTVS_SUBSKEYS>
AAADcQAAAAAAA4AAAAAAgAAAAAAAAAAAAAAAAAAAAAAAAAAAAAAAAAAAAAAAAAAAAAAAAAAAAAAAAAAAAAAAAAAAAAAAAAAAAAAAAAAAAAAAAAAAAAAAAAAAAAAAAAAAAAAAAAAAAAAAAAAAAAAAAAAAAA==

> <PUBCHEM_IUPAC_OPENEYE_NAME>
tantalum(5+) pentaiodide

> <PUBCHEM_IUPAC_CAS_NAME>
tantalum(5+) pentaiodide

> <PUBCHEM_IUPAC_NAME_MARKUP>
tantalum(5+) pentaiodide

> <PUBCHEM_IUPAC_NAME>
tantalum(5+) pentaiodide

> <PUBCHEM_IUPAC_SYSTEMATIC_NAME>
tantalum(5+) pentaiodide

> <PUBCHEM_IUPAC_TRADITIONAL_NAME>
tantalum(5+) pentaiodide

> <PUBCHEM_IUPAC_INCHI>
InChI=1S/5HI.Ta/h5*1H;/q;;;;;+5/p-5

> <PUBCHEM_IUPAC_INCHIKEY>
MISXNQITXACHNJ-UHFFFAOYSA-I

> <PUBCHEM_EXACT_MASS>
815.4704

> <PUBCHEM_MOLECULAR_FORMULA>
I5Ta

> <PUBCHEM_MOLECULAR_WEIGHT>
815.4702

> <PUBCHEM_SMILES>
[I-].[I-].[I-].[I-].[I-].[Ta+5]

> <PUBCHEM_CONNECTIVITY_SMILES>
[I-].[I-].[I-].[I-].[I-].[Ta+5]

> <PUBCHEM_CACTVS_TPSA>
0

> <PUBCHEM_MONOISOTOPIC_WEIGHT>
815.4704

> <PUBCHEM_TOTAL_CHARGE>
0

> <PUBCHEM_HEAVY_ATOM_COUNT>
6

> <PUBCHEM_ATOM_DEF_STEREO_COUNT>
0

> <PUBCHEM_ATOM_UDEF_STEREO_COUNT>
0

> <PUBCHEM_BOND_DEF_STEREO_COUNT>
0

> <PUBCHEM_BOND_UDEF_STEREO_COUNT>
0

> <PUBCHEM_ISOTOPIC_ATOM_COUNT>
0

> <PUBCHEM_COMPONENT_COUNT>
6

> <PUBCHEM_CACTVS_TAUTO_COUNT>
-1

> <PUBCHEM_COORDINATE_TYPE>
1
5
255

$$$$
