24936
  -OEChem-08152607042D

  6  5  0     0  0  0  0  0  0999 V2000
    3.4030    0.2500    0.0000 Te  0  0  0  0  0  0  0  0  0  0  0  0
    4.2690    0.7500    0.0000 O   0  0  0  0  0  0  0  0  0  0  0  0
    2.5369    0.7500    0.0000 O   0  0  0  0  0  0  0  0  0  0  0  0
    3.4030   -0.7500    0.0000 O   0  0  0  0  0  0  0  0  0  0  0  0
    4.8059    0.4400    0.0000 H   0  0  0  0  0  0  0  0  0  0  0  0
    2.0000    0.4400    0.0000 H   0  0  0  0  0  0  0  0  0  0  0  0
  1  2  1  0  0  0  0
  1  3  1  0  0  0  0
  1  4  2  0  0  0  0
  2  5  1  0  0  0  0
  3  6  1  0  0  0  0
M  END
> <PUBCHEM_COMPOUND_CID>
24936

> <PUBCHEM_COMPOUND_CANONICALIZED>
1

> <PUBCHEM_CACTVS_COMPLEXITY>
26.3

> <PUBCHEM_CACTVS_HBOND_ACCEPTOR>
3

> <PUBCHEM_CACTVS_HBOND_DONOR>
2

> <PUBCHEM_CACTVS_ROTATABLE_BOND>
0

> <PUBCHEM_CACTVS_SUBSKEYS>
AAADcQAAMAAAAAAAAAAgAAAAAAAAAAAAAAAAAAAAAAAAAAAAAAAAAAAACAAAAAAAAAAAAAAAAAAAAAAAAAAAAAAAAAAAAAAAAAAAAAAAAAAAAAAAAAAAAAAAAAAAAAAAAAAAAAAAAAAAAAAAAAAAAAAAAA==

> <PUBCHEM_IUPAC_OPENEYE_NAME>
tellurous acid

> <PUBCHEM_IUPAC_CAS_NAME>
tellurous acid

> <PUBCHEM_IUPAC_NAME_MARKUP>
tellurous acid

> <PUBCHEM_IUPAC_NAME>
tellurous acid

> <PUBCHEM_IUPAC_SYSTEMATIC_NAME>
tellurous acid

> <PUBCHEM_IUPAC_TRADITIONAL_NAME>
tellurous acid

> <PUBCHEM_IUPAC_INCHI>
InChI=1S/H2O3Te/c1-4(2)3/h(H2,1,2,3)

> <PUBCHEM_IUPAC_INCHIKEY>
SITVSCPRJNYAGV-UHFFFAOYSA-N

> <PUBCHEM_EXACT_MASS>
179.9066167

> <PUBCHEM_MOLECULAR_FORMULA>
H2O3Te

> <PUBCHEM_MOLECULAR_WEIGHT>
177.6

> <PUBCHEM_SMILES>
O[Te](=O)O

> <PUBCHEM_CONNECTIVITY_SMILES>
O[Te](=O)O

> <PUBCHEM_CACTVS_TPSA>
57.5

> <PUBCHEM_MONOISOTOPIC_WEIGHT>
179.9066167

> <PUBCHEM_TOTAL_CHARGE>
0

> <PUBCHEM_HEAVY_ATOM_COUNT>
4

> <PUBCHEM_ATOM_DEF_STEREO_COUNT>
0

> <PUBCHEM_ATOM_UDEF_STEREO_COUNT>
0

> <PUBCHEM_BOND_DEF_STEREO_COUNT>
0

> <PUBCHEM_BOND_UDEF_STEREO_COUNT>
0

> <PUBCHEM_ISOTOPIC_ATOM_COUNT>
0

> <PUBCHEM_COMPONENT_COUNT>
1

> <PUBCHEM_CACTVS_TAUTO_COUNT>
-1

> <PUBCHEM_COORDINATE_TYPE>
1
5
255

$$$$
