102601955
  -OEChem-08152604472D

  7  5  0     0  0  0  0  0  0999 V2000
    2.9663   -0.0898    0.0000 Tb  0  0  0  0  0  0  0  0  0  0  0  0
    2.2592    0.6173    0.0000 B   0  4  0  0  0  0  0  0  0  0  0  0
    2.0000   -0.3490    0.0000 B   0  4  0  0  0  0  0  0  0  0  0  0
    3.6734    0.6173    0.0000 B   0  4  0  0  0  0  0  0  0  0  0  0
    3.2316   -1.0631    0.0000 B   0  4  0  0  0  0  0  0  0  0  0  0
    2.9663    1.3244    0.0000 B   0  0  0  0  0  0  0  0  0  0  0  0
    2.2573   -1.3244    0.0000 B   0  0  0  0  0  0  0  0  0  0  0  0
  2  3  1  0  0  0  0
  2  6  1  0  0  0  0
  3  7  1  0  0  0  0
  4  6  2  0  0  0  0
  5  7  2  0  0  0  0
M  RAD  4   2   2   3   2   4   2   5   2
M  END
> <PUBCHEM_COMPOUND_CID>
102601955

> <PUBCHEM_COMPOUND_CANONICALIZED>
1

> <PUBCHEM_CACTVS_COMPLEXITY>
40.1

> <PUBCHEM_CACTVS_HBOND_ACCEPTOR>
0

> <PUBCHEM_CACTVS_HBOND_DONOR>
0

> <PUBCHEM_CACTVS_ROTATABLE_BOND>
0

> <PUBCHEM_CACTVS_SUBSKEYS>
AAADcQOAAAAAAAAAAAAAAAAQEgBAgQIAAAAAAAAABAAAAAAAAABAAAAAAAAAAAAAAAAAAAAAAAAAAAAAAAAAAAAAAAAAAAAAAAAAAAAAAAAAAAAAAAAAAAAAAAAAAAAAAAAAAAAAAAAAAAAAAAAAAAAAAA==

> <PUBCHEM_IUPAC_INCHI>
InChI=1S/B6.Tb/c1-3-5-6-4-2;

> <PUBCHEM_IUPAC_INCHIKEY>
FYDTVTHYCRTSAJ-UHFFFAOYSA-N

> <PUBCHEM_EXACT_MASS>
223.98482

> <PUBCHEM_MOLECULAR_FORMULA>
B6Tb

> <PUBCHEM_MOLECULAR_WEIGHT>
223.8

> <PUBCHEM_SMILES>
[B]=B[B][B]B=[B].[Tb]

> <PUBCHEM_CONNECTIVITY_SMILES>
[B]=B[B][B]B=[B].[Tb]

> <PUBCHEM_CACTVS_TPSA>
0

> <PUBCHEM_MONOISOTOPIC_WEIGHT>
224.98118

> <PUBCHEM_TOTAL_CHARGE>
0

> <PUBCHEM_HEAVY_ATOM_COUNT>
7

> <PUBCHEM_ATOM_DEF_STEREO_COUNT>
0

> <PUBCHEM_ATOM_UDEF_STEREO_COUNT>
0

> <PUBCHEM_BOND_DEF_STEREO_COUNT>
0

> <PUBCHEM_BOND_UDEF_STEREO_COUNT>
0

> <PUBCHEM_ISOTOPIC_ATOM_COUNT>
0

> <PUBCHEM_COMPONENT_COUNT>
2

> <PUBCHEM_CACTVS_TAUTO_COUNT>
-1

> <PUBCHEM_NONSTANDARDBOND>
1  2  6
1  3  6
1  4  6
1  5  6

> <PUBCHEM_COORDINATE_TYPE>
1
5
255

$$$$
