82889
  -OEChem-08152607422D

 10  6  0     0  0  0  0  0  0999 V2000
    3.3100   -0.3865    0.0000 Tb  0  0  0  0  0  0  0  0  0  0  0  0
    3.3100    0.6135    0.0000 O   0  0  0  0  0  0  0  0  0  0  0  0
    2.3100   -0.3865    0.0000 O   0  0  0  0  0  0  0  0  0  0  0  0
    4.3100   -0.3865    0.0000 O   0  0  0  0  0  0  0  0  0  0  0  0
    3.8469    0.9235    0.0000 H   0  0  0  0  0  0  0  0  0  0  0  0
    2.7731    0.9235    0.0000 H   0  0  0  0  0  0  0  0  0  0  0  0
    2.0000   -0.9235    0.0000 H   0  0  0  0  0  0  0  0  0  0  0  0
    2.0000    0.1504    0.0000 H   0  0  0  0  0  0  0  0  0  0  0  0
    4.6200   -0.9235    0.0000 H   0  0  0  0  0  0  0  0  0  0  0  0
    4.6200    0.1504    0.0000 H   0  0  0  0  0  0  0  0  0  0  0  0
  2  5  1  0  0  0  0
  2  6  1  0  0  0  0
  3  7  1  0  0  0  0
  3  8  1  0  0  0  0
  4  9  1  0  0  0  0
  4 10  1  0  0  0  0
M  END
> <PUBCHEM_COMPOUND_CID>
82889

> <PUBCHEM_COMPOUND_CANONICALIZED>
1

> <PUBCHEM_CACTVS_COMPLEXITY>
3.2

> <PUBCHEM_CACTVS_HBOND_ACCEPTOR>
3

> <PUBCHEM_CACTVS_HBOND_DONOR>
3

> <PUBCHEM_CACTVS_ROTATABLE_BOND>
0

> <PUBCHEM_CACTVS_SUBSKEYS>
AAADcYAAMAAAAAAAAAAAAAAQAAAAAAAAAAAAAAAAAAAAAAAAAAAAAAAACAAAAAAAAAAAAAAAAAAAAAAAAAAAAAAAAAAAAAAAAAAAAAAAAAAAAAAAAAAAAAAAAAAAAAAAAAAAAAAAAAAAAAAAAAAAAAAAAA==

> <PUBCHEM_IUPAC_OPENEYE_NAME>
terbium;trihydrate

> <PUBCHEM_IUPAC_CAS_NAME>
terbium;trihydrate

> <PUBCHEM_IUPAC_NAME_MARKUP>
terbium;trihydrate

> <PUBCHEM_IUPAC_NAME>
terbium;trihydrate

> <PUBCHEM_IUPAC_SYSTEMATIC_NAME>
terbium;trihydrate

> <PUBCHEM_IUPAC_TRADITIONAL_NAME>
terbium;trihydrate

> <PUBCHEM_IUPAC_INCHI>
InChI=1S/3H2O.Tb/h3*1H2;

> <PUBCHEM_IUPAC_INCHIKEY>
DIRSQPIRPNAECV-UHFFFAOYSA-N

> <PUBCHEM_EXACT_MASS>
212.95705

> <PUBCHEM_MOLECULAR_FORMULA>
H6O3Tb

> <PUBCHEM_MOLECULAR_WEIGHT>
212.971

> <PUBCHEM_SMILES>
O.O.O.[Tb]

> <PUBCHEM_CONNECTIVITY_SMILES>
O.O.O.[Tb]

> <PUBCHEM_CACTVS_TPSA>
3

> <PUBCHEM_MONOISOTOPIC_WEIGHT>
212.95705

> <PUBCHEM_TOTAL_CHARGE>
0

> <PUBCHEM_HEAVY_ATOM_COUNT>
4

> <PUBCHEM_ATOM_DEF_STEREO_COUNT>
0

> <PUBCHEM_ATOM_UDEF_STEREO_COUNT>
0

> <PUBCHEM_BOND_DEF_STEREO_COUNT>
0

> <PUBCHEM_BOND_UDEF_STEREO_COUNT>
0

> <PUBCHEM_ISOTOPIC_ATOM_COUNT>
0

> <PUBCHEM_COMPONENT_COUNT>
4

> <PUBCHEM_CACTVS_TAUTO_COUNT>
-1

> <PUBCHEM_NONSTANDARDBOND>
1  2  6
1  3  6
1  4  6

> <PUBCHEM_COORDINATE_TYPE>
1
5
255

$$$$
