11979704
  -OEChem-08152604412D

137144  0     0  0  0  0  0  0999 V2000
   11.1550    0.0000    0.0000 Pd  0  0  0  0  0  0  0  0  0  0  0  0
    3.1350    4.8700    0.0000 P   0  0  0  0  0  0  0  0  0  0  0  0
   11.4050    6.1200    0.0000 P   0  0  0  0  0  0  0  0  0  0  0  0
    3.1350   13.1100    0.0000 P   0  0  0  0  0  0  0  0  0  0  0  0
   11.4050   14.3600    0.0000 P   0  0  0  0  0  0  0  0  0  0  0  0
    3.1350    3.8700    0.0000 C   0  0  0  0  0  0  0  0  0  0  0  0
    4.0010    5.3700    0.0000 C   0  0  0  0  0  0  0  0  0  0  0  0
    2.2690    5.3700    0.0000 C   0  0  0  0  0  0  0  0  0  0  0  0
   11.4050    5.1200    0.0000 C   0  0  0  0  0  0  0  0  0  0  0  0
   12.2711    6.6200    0.0000 C   0  0  0  0  0  0  0  0  0  0  0  0
   10.5390    6.6200    0.0000 C   0  0  0  0  0  0  0  0  0  0  0  0
    3.1350   12.1100    0.0000 C   0  0  0  0  0  0  0  0  0  0  0  0
    4.0010   13.6100    0.0000 C   0  0  0  0  0  0  0  0  0  0  0  0
    2.2690   13.6100    0.0000 C   0  0  0  0  0  0  0  0  0  0  0  0
   11.4050   13.3600    0.0000 C   0  0  0  0  0  0  0  0  0  0  0  0
   12.2711   14.8600    0.0000 C   0  0  0  0  0  0  0  0  0  0  0  0
   10.5390   14.8600    0.0000 C   0  0  0  0  0  0  0  0  0  0  0  0
    2.2690    3.3700    0.0000 C   0  0  0  0  0  0  0  0  0  0  0  0
    4.0010    6.3700    0.0000 C   0  0  0  0  0  0  0  0  0  0  0  0
    1.4030    4.8700    0.0000 C   0  0  0  0  0  0  0  0  0  0  0  0
   12.2711    4.6200    0.0000 C   0  0  0  0  0  0  0  0  0  0  0  0
   12.2711    7.6200    0.0000 C   0  0  0  0  0  0  0  0  0  0  0  0
    9.6730    6.1200    0.0000 C   0  0  0  0  0  0  0  0  0  0  0  0
    2.2690   11.6100    0.0000 C   0  0  0  0  0  0  0  0  0  0  0  0
    4.8671   13.1100    0.0000 C   0  0  0  0  0  0  0  0  0  0  0  0
    1.4030   13.1100    0.0000 C   0  0  0  0  0  0  0  0  0  0  0  0
   10.5390   12.8600    0.0000 C   0  0  0  0  0  0  0  0  0  0  0  0
   13.1371   14.3600    0.0000 C   0  0  0  0  0  0  0  0  0  0  0  0
    9.6730   14.3600    0.0000 C   0  0  0  0  0  0  0  0  0  0  0  0
    4.0010    3.3700    0.0000 C   0  0  0  0  0  0  0  0  0  0  0  0
    4.8671    4.8700    0.0000 C   0  0  0  0  0  0  0  0  0  0  0  0
    2.2690    6.3700    0.0000 C   0  0  0  0  0  0  0  0  0  0  0  0
   10.5390    4.6200    0.0000 C   0  0  0  0  0  0  0  0  0  0  0  0
   13.1371    6.1200    0.0000 C   0  0  0  0  0  0  0  0  0  0  0  0
   10.5390    7.6200    0.0000 C   0  0  0  0  0  0  0  0  0  0  0  0
    4.0010   11.6100    0.0000 C   0  0  0  0  0  0  0  0  0  0  0  0
    4.0010   14.6100    0.0000 C   0  0  0  0  0  0  0  0  0  0  0  0
    2.2690   14.6100    0.0000 C   0  0  0  0  0  0  0  0  0  0  0  0
   12.2711   12.8600    0.0000 C   0  0  0  0  0  0  0  0  0  0  0  0
   12.2711   15.8600    0.0000 C   0  0  0  0  0  0  0  0  0  0  0  0
   10.5390   15.8600    0.0000 C   0  0  0  0  0  0  0  0  0  0  0  0
    2.2690    2.3700    0.0000 C   0  0  0  0  0  0  0  0  0  0  0  0
    4.8671    6.8700    0.0000 C   0  0  0  0  0  0  0  0  0  0  0  0
    0.5369    5.3700    0.0000 C   0  0  0  0  0  0  0  0  0  0  0  0
   12.2711    3.6200    0.0000 C   0  0  0  0  0  0  0  0  0  0  0  0
   13.1371    8.1200    0.0000 C   0  0  0  0  0  0  0  0  0  0  0  0
    8.8070    6.6200    0.0000 C   0  0  0  0  0  0  0  0  0  0  0  0
    2.2690   10.6100    0.0000 C   0  0  0  0  0  0  0  0  0  0  0  0
    5.7331   13.6100    0.0000 C   0  0  0  0  0  0  0  0  0  0  0  0
    0.5369   13.6100    0.0000 C   0  0  0  0  0  0  0  0  0  0  0  0
   10.5390   11.8600    0.0000 C   0  0  0  0  0  0  0  0  0  0  0  0
   14.0031   14.8600    0.0000 C   0  0  0  0  0  0  0  0  0  0  0  0
    8.8070   14.8600    0.0000 C   0  0  0  0  0  0  0  0  0  0  0  0
    4.0010    2.3700    0.0000 C   0  0  0  0  0  0  0  0  0  0  0  0
    5.7331    5.3700    0.0000 C   0  0  0  0  0  0  0  0  0  0  0  0
    1.4030    6.8700    0.0000 C   0  0  0  0  0  0  0  0  0  0  0  0
   10.5390    3.6200    0.0000 C   0  0  0  0  0  0  0  0  0  0  0  0
   14.0031    6.6200    0.0000 C   0  0  0  0  0  0  0  0  0  0  0  0
    9.6730    8.1200    0.0000 C   0  0  0  0  0  0  0  0  0  0  0  0
    4.0010   10.6100    0.0000 C   0  0  0  0  0  0  0  0  0  0  0  0
    4.8671   15.1100    0.0000 C   0  0  0  0  0  0  0  0  0  0  0  0
    1.4030   15.1100    0.0000 C   0  0  0  0  0  0  0  0  0  0  0  0
   12.2711   11.8600    0.0000 C   0  0  0  0  0  0  0  0  0  0  0  0
   13.1371   16.3600    0.0000 C   0  0  0  0  0  0  0  0  0  0  0  0
    9.6730   16.3600    0.0000 C   0  0  0  0  0  0  0  0  0  0  0  0
    3.1350    1.8700    0.0000 C   0  0  0  0  0  0  0  0  0  0  0  0
    5.7331    6.3700    0.0000 C   0  0  0  0  0  0  0  0  0  0  0  0
    0.5369    6.3700    0.0000 C   0  0  0  0  0  0  0  0  0  0  0  0
   11.4050    3.1200    0.0000 C   0  0  0  0  0  0  0  0  0  0  0  0
   14.0031    7.6200    0.0000 C   0  0  0  0  0  0  0  0  0  0  0  0
    8.8070    7.6200    0.0000 C   0  0  0  0  0  0  0  0  0  0  0  0
    3.1350   10.1100    0.0000 C   0  0  0  0  0  0  0  0  0  0  0  0
    5.7331   14.6100    0.0000 C   0  0  0  0  0  0  0  0  0  0  0  0
    0.5369   14.6100    0.0000 C   0  0  0  0  0  0  0  0  0  0  0  0
   11.4050   11.3600    0.0000 C   0  0  0  0  0  0  0  0  0  0  0  0
   14.0031   15.8600    0.0000 C   0  0  0  0  0  0  0  0  0  0  0  0
    8.8070   15.8600    0.0000 C   0  0  0  0  0  0  0  0  0  0  0  0
    1.7321    3.6800    0.0000 H   0  0  0  0  0  0  0  0  0  0  0  0
    3.4641    6.6800    0.0000 H   0  0  0  0  0  0  0  0  0  0  0  0
    1.4030    4.2500    0.0000 H   0  0  0  0  0  0  0  0  0  0  0  0
   12.8080    4.9300    0.0000 H   0  0  0  0  0  0  0  0  0  0  0  0
   11.7341    7.9300    0.0000 H   0  0  0  0  0  0  0  0  0  0  0  0
    9.6730    5.5000    0.0000 H   0  0  0  0  0  0  0  0  0  0  0  0
    1.7321   11.9200    0.0000 H   0  0  0  0  0  0  0  0  0  0  0  0
    4.8671   12.4900    0.0000 H   0  0  0  0  0  0  0  0  0  0  0  0
    1.4030   12.4900    0.0000 H   0  0  0  0  0  0  0  0  0  0  0  0
   10.0021   13.1700    0.0000 H   0  0  0  0  0  0  0  0  0  0  0  0
   13.1371   13.7400    0.0000 H   0  0  0  0  0  0  0  0  0  0  0  0
    9.6730   13.7400    0.0000 H   0  0  0  0  0  0  0  0  0  0  0  0
    4.5380    3.6800    0.0000 H   0  0  0  0  0  0  0  0  0  0  0  0
    4.8671    4.2500    0.0000 H   0  0  0  0  0  0  0  0  0  0  0  0
    2.8059    6.6800    0.0000 H   0  0  0  0  0  0  0  0  0  0  0  0
   10.0021    4.9300    0.0000 H   0  0  0  0  0  0  0  0  0  0  0  0
   13.1371    5.5000    0.0000 H   0  0  0  0  0  0  0  0  0  0  0  0
   11.0759    7.9300    0.0000 H   0  0  0  0  0  0  0  0  0  0  0  0
    4.5380   11.9200    0.0000 H   0  0  0  0  0  0  0  0  0  0  0  0
    3.4641   14.9200    0.0000 H   0  0  0  0  0  0  0  0  0  0  0  0
    2.8059   14.9200    0.0000 H   0  0  0  0  0  0  0  0  0  0  0  0
   12.8080   13.1700    0.0000 H   0  0  0  0  0  0  0  0  0  0  0  0
   11.7341   16.1700    0.0000 H   0  0  0  0  0  0  0  0  0  0  0  0
   11.0759   16.1700    0.0000 H   0  0  0  0  0  0  0  0  0  0  0  0
    1.7321    2.0600    0.0000 H   0  0  0  0  0  0  0  0  0  0  0  0
    4.8671    7.4900    0.0000 H   0  0  0  0  0  0  0  0  0  0  0  0
    0.0000    5.0600    0.0000 H   0  0  0  0  0  0  0  0  0  0  0  0
   12.8080    3.3100    0.0000 H   0  0  0  0  0  0  0  0  0  0  0  0
   13.1371    8.7400    0.0000 H   0  0  0  0  0  0  0  0  0  0  0  0
    8.2700    6.3100    0.0000 H   0  0  0  0  0  0  0  0  0  0  0  0
    1.7321   10.3000    0.0000 H   0  0  0  0  0  0  0  0  0  0  0  0
    6.2700   13.3000    0.0000 H   0  0  0  0  0  0  0  0  0  0  0  0
    0.0000   13.3000    0.0000 H   0  0  0  0  0  0  0  0  0  0  0  0
   10.0021   11.5500    0.0000 H   0  0  0  0  0  0  0  0  0  0  0  0
   14.5400   14.5500    0.0000 H   0  0  0  0  0  0  0  0  0  0  0  0
    8.2700   14.5500    0.0000 H   0  0  0  0  0  0  0  0  0  0  0  0
    4.5380    2.0600    0.0000 H   0  0  0  0  0  0  0  0  0  0  0  0
    6.2700    5.0600    0.0000 H   0  0  0  0  0  0  0  0  0  0  0  0
    1.4030    7.4900    0.0000 H   0  0  0  0  0  0  0  0  0  0  0  0
   10.0021    3.3100    0.0000 H   0  0  0  0  0  0  0  0  0  0  0  0
   14.5400    6.3100    0.0000 H   0  0  0  0  0  0  0  0  0  0  0  0
    9.6730    8.7400    0.0000 H   0  0  0  0  0  0  0  0  0  0  0  0
    4.5380   10.3000    0.0000 H   0  0  0  0  0  0  0  0  0  0  0  0
    4.8671   15.7300    0.0000 H   0  0  0  0  0  0  0  0  0  0  0  0
    1.4030   15.7300    0.0000 H   0  0  0  0  0  0  0  0  0  0  0  0
   12.8080   11.5500    0.0000 H   0  0  0  0  0  0  0  0  0  0  0  0
   13.1371   16.9800    0.0000 H   0  0  0  0  0  0  0  0  0  0  0  0
    9.6730   16.9800    0.0000 H   0  0  0  0  0  0  0  0  0  0  0  0
    3.1350    1.2500    0.0000 H   0  0  0  0  0  0  0  0  0  0  0  0
    6.2700    6.6800    0.0000 H   0  0  0  0  0  0  0  0  0  0  0  0
    0.0000    6.6800    0.0000 H   0  0  0  0  0  0  0  0  0  0  0  0
   11.4050    2.5000    0.0000 H   0  0  0  0  0  0  0  0  0  0  0  0
   14.5400    7.9300    0.0000 H   0  0  0  0  0  0  0  0  0  0  0  0
    8.2700    7.9300    0.0000 H   0  0  0  0  0  0  0  0  0  0  0  0
    3.1350    9.4900    0.0000 H   0  0  0  0  0  0  0  0  0  0  0  0
    6.2700   14.9200    0.0000 H   0  0  0  0  0  0  0  0  0  0  0  0
    0.0000   14.9200    0.0000 H   0  0  0  0  0  0  0  0  0  0  0  0
   11.4050   10.7400    0.0000 H   0  0  0  0  0  0  0  0  0  0  0  0
   14.5400   16.1700    0.0000 H   0  0  0  0  0  0  0  0  0  0  0  0
    8.2700   16.1700    0.0000 H   0  0  0  0  0  0  0  0  0  0  0  0
  2  6  1  0  0  0  0
  2  7  1  0  0  0  0
  2  8  1  0  0  0  0
  3  9  1  0  0  0  0
  3 10  1  0  0  0  0
  3 11  1  0  0  0  0
  4 12  1  0  0  0  0
  4 13  1  0  0  0  0
  4 14  1  0  0  0  0
  5 15  1  0  0  0  0
  5 16  1  0  0  0  0
  5 17  1  0  0  0  0
  6 18  2  0  0  0  0
  6 30  1  0  0  0  0
  7 19  2  0  0  0  0
  7 31  1  0  0  0  0
  8 20  2  0  0  0  0
  8 32  1  0  0  0  0
  9 21  2  0  0  0  0
  9 33  1  0  0  0  0
 10 22  2  0  0  0  0
 10 34  1  0  0  0  0
 11 23  2  0  0  0  0
 11 35  1  0  0  0  0
 12 24  2  0  0  0  0
 12 36  1  0  0  0  0
 13 25  2  0  0  0  0
 13 37  1  0  0  0  0
 14 26  2  0  0  0  0
 14 38  1  0  0  0  0
 15 27  2  0  0  0  0
 15 39  1  0  0  0  0
 16 28  2  0  0  0  0
 16 40  1  0  0  0  0
 17 29  2  0  0  0  0
 17 41  1  0  0  0  0
 18 42  1  0  0  0  0
 18 78  1  0  0  0  0
 19 43  1  0  0  0  0
 19 79  1  0  0  0  0
 20 44  1  0  0  0  0
 20 80  1  0  0  0  0
 21 45  1  0  0  0  0
 21 81  1  0  0  0  0
 22 46  1  0  0  0  0
 22 82  1  0  0  0  0
 23 47  1  0  0  0  0
 23 83  1  0  0  0  0
 24 48  1  0  0  0  0
 24 84  1  0  0  0  0
 25 49  1  0  0  0  0
 25 85  1  0  0  0  0
 26 50  1  0  0  0  0
 26 86  1  0  0  0  0
 27 51  1  0  0  0  0
 27 87  1  0  0  0  0
 28 52  1  0  0  0  0
 28 88  1  0  0  0  0
 29 53  1  0  0  0  0
 29 89  1  0  0  0  0
 30 54  2  0  0  0  0
 30 90  1  0  0  0  0
 31 55  2  0  0  0  0
 31 91  1  0  0  0  0
 32 56  2  0  0  0  0
 32 92  1  0  0  0  0
 33 57  2  0  0  0  0
 33 93  1  0  0  0  0
 34 58  2  0  0  0  0
 34 94  1  0  0  0  0
 35 59  2  0  0  0  0
 35 95  1  0  0  0  0
 36 60  2  0  0  0  0
 36 96  1  0  0  0  0
 37 61  2  0  0  0  0
 37 97  1  0  0  0  0
 38 62  2  0  0  0  0
 38 98  1  0  0  0  0
 39 63  2  0  0  0  0
 39 99  1  0  0  0  0
 40 64  2  0  0  0  0
 40100  1  0  0  0  0
 41 65  2  0  0  0  0
 41101  1  0  0  0  0
 42 66  2  0  0  0  0
 42102  1  0  0  0  0
 43 67  2  0  0  0  0
 43103  1  0  0  0  0
 44 68  2  0  0  0  0
 44104  1  0  0  0  0
 45 69  2  0  0  0  0
 45105  1  0  0  0  0
 46 70  2  0  0  0  0
 46106  1  0  0  0  0
 47 71  2  0  0  0  0
 47107  1  0  0  0  0
 48 72  2  0  0  0  0
 48108  1  0  0  0  0
 49 73  2  0  0  0  0
 49109  1  0  0  0  0
 50 74  2  0  0  0  0
 50110  1  0  0  0  0
 51 75  2  0  0  0  0
 51111  1  0  0  0  0
 52 76  2  0  0  0  0
 52112  1  0  0  0  0
 53 77  2  0  0  0  0
 53113  1  0  0  0  0
 54 66  1  0  0  0  0
 54114  1  0  0  0  0
 55 67  1  0  0  0  0
 55115  1  0  0  0  0
 56 68  1  0  0  0  0
 56116  1  0  0  0  0
 57 69  1  0  0  0  0
 57117  1  0  0  0  0
 58 70  1  0  0  0  0
 58118  1  0  0  0  0
 59 71  1  0  0  0  0
 59119  1  0  0  0  0
 60 72  1  0  0  0  0
 60120  1  0  0  0  0
 61 73  1  0  0  0  0
 61121  1  0  0  0  0
 62 74  1  0  0  0  0
 62122  1  0  0  0  0
 63 75  1  0  0  0  0
 63123  1  0  0  0  0
 64 76  1  0  0  0  0
 64124  1  0  0  0  0
 65 77  1  0  0  0  0
 65125  1  0  0  0  0
 66126  1  0  0  0  0
 67127  1  0  0  0  0
 68128  1  0  0  0  0
 69129  1  0  0  0  0
 70130  1  0  0  0  0
 71131  1  0  0  0  0
 72132  1  0  0  0  0
 73133  1  0  0  0  0
 74134  1  0  0  0  0
 75135  1  0  0  0  0
 76136  1  0  0  0  0
 77137  1  0  0  0  0
M  END
> <PUBCHEM_COMPOUND_CID>
11979704

> <PUBCHEM_COMPOUND_CANONICALIZED>
1

> <PUBCHEM_CACTVS_COMPLEXITY>
202

> <PUBCHEM_CACTVS_HBOND_ACCEPTOR>
0

> <PUBCHEM_CACTVS_HBOND_DONOR>
0

> <PUBCHEM_CACTVS_ROTATABLE_BOND>
12

> <PUBCHEM_CACTVS_SUBSKEYS>
AAADcfB8AAOAAAAAAAgAAAAAAAAAAAAAAAAwYMGDAAAAAAABVAAAGAgAAAAACACAEAAwAIAAACCAACBCAAACAAAgAAAIiAAAAIgIICKAERCAIAAggAAIiAcAAAAAAAAAAAAAAAAAAAAAAAAAAAAAAAAAAA==

> <PUBCHEM_IUPAC_OPENEYE_NAME>
palladium;tetrakis(triphenylphosphane)

> <PUBCHEM_IUPAC_CAS_NAME>
palladium;tetrakis(triphenylphosphine)

> <PUBCHEM_IUPAC_NAME_MARKUP>
palladium;tetrakis(triphenylphosphane)

> <PUBCHEM_IUPAC_NAME>
palladium;tetrakis(triphenylphosphane)

> <PUBCHEM_IUPAC_SYSTEMATIC_NAME>
palladium;tetrakis(triphenylphosphane)

> <PUBCHEM_IUPAC_TRADITIONAL_NAME>
palladium;tetrakis(triphenylphosphine)

> <PUBCHEM_IUPAC_INCHI>
InChI=1S/4C18H15P.Pd/c4*1-4-10-16(11-5-1)19(17-12-6-2-7-13-17)18-14-8-3-9-15-18;/h4*1-15H;

> <PUBCHEM_IUPAC_INCHIKEY>
NFHFRUOZVGFOOS-UHFFFAOYSA-N

> <PUBCHEM_EXACT_MASS>
1154.26803

> <PUBCHEM_MOLECULAR_FORMULA>
C72H60P4Pd

> <PUBCHEM_MOLECULAR_WEIGHT>
1155.6

> <PUBCHEM_SMILES>
C1=CC=C(C=C1)P(C2=CC=CC=C2)C3=CC=CC=C3.C1=CC=C(C=C1)P(C2=CC=CC=C2)C3=CC=CC=C3.C1=CC=C(C=C1)P(C2=CC=CC=C2)C3=CC=CC=C3.C1=CC=C(C=C1)P(C2=CC=CC=C2)C3=CC=CC=C3.[Pd]

> <PUBCHEM_CONNECTIVITY_SMILES>
C1=CC=C(C=C1)P(C2=CC=CC=C2)C3=CC=CC=C3.C1=CC=C(C=C1)P(C2=CC=CC=C2)C3=CC=CC=C3.C1=CC=C(C=C1)P(C2=CC=CC=C2)C3=CC=CC=C3.C1=CC=C(C=C1)P(C2=CC=CC=C2)C3=CC=CC=C3.[Pd]

> <PUBCHEM_CACTVS_TPSA>
0

> <PUBCHEM_MONOISOTOPIC_WEIGHT>
1154.26803

> <PUBCHEM_TOTAL_CHARGE>
0

> <PUBCHEM_HEAVY_ATOM_COUNT>
77

> <PUBCHEM_ATOM_DEF_STEREO_COUNT>
0

> <PUBCHEM_ATOM_UDEF_STEREO_COUNT>
0

> <PUBCHEM_BOND_DEF_STEREO_COUNT>
0

> <PUBCHEM_BOND_UDEF_STEREO_COUNT>
0

> <PUBCHEM_ISOTOPIC_ATOM_COUNT>
0

> <PUBCHEM_COMPONENT_COUNT>
5

> <PUBCHEM_CACTVS_TAUTO_COUNT>
-1

> <PUBCHEM_COORDINATE_TYPE>
1
5
255

> <PUBCHEM_BONDANNOTATIONS>
10  22  8
10  34  8
11  23  8
11  35  8
12  24  8
12  36  8
13  25  8
13  37  8
14  26  8
14  38  8
15  27  8
15  39  8
16  28  8
16  40  8
17  29  8
17  41  8
18  42  8
19  43  8
20  44  8
21  45  8
22  46  8
23  47  8
24  48  8
25  49  8
26  50  8
27  51  8
28  52  8
29  53  8
30  54  8
31  55  8
32  56  8
33  57  8
34  58  8
35  59  8
36  60  8
37  61  8
38  62  8
39  63  8
40  64  8
41  65  8
42  66  8
43  67  8
44  68  8
45  69  8
46  70  8
47  71  8
48  72  8
49  73  8
50  74  8
51  75  8
52  76  8
53  77  8
54  66  8
55  67  8
56  68  8
57  69  8
58  70  8
59  71  8
6  18  8
6  30  8
60  72  8
61  73  8
62  74  8
63  75  8
64  76  8
65  77  8
7  19  8
7  31  8
8  20  8
8  32  8
9  21  8
9  33  8

$$$$
