697
  -OEChem-08152603063D

 21 20  0     1  0  0  0  0  0999 V2000
    2.6564   -0.1687    0.0066 P   0  0  0  0  0  0  0  0  0  0  0  0
    1.3117    0.7123   -0.1530 O   0  0  0  0  0  0  0  0  0  0  0  0
   -1.0103    1.9777    0.7770 O   0  0  0  0  0  0  0  0  0  0  0  0
   -2.5605   -0.3615   -1.5529 O   0  0  0  0  0  0  0  0  0  0  0  0
    2.5298   -1.2807   -1.1607 O   0  0  0  0  0  0  0  0  0  0  0  0
    2.3701   -1.0119    1.3563 O   0  0  0  0  0  0  0  0  0  0  0  0
    3.9354    0.6163    0.0090 O   0  0  0  0  0  0  0  0  0  0  0  0
   -3.0106   -1.6152    0.7722 O   0  0  0  0  0  0  0  0  0  0  0  0
   -1.0540    1.0657   -0.3236 C   0  0  1  0  0  0  0  0  0  0  0  0
    0.0588    0.0347   -0.1637 C   0  0  0  0  0  0  0  0  0  0  0  0
   -2.4501    0.4428   -0.3881 C   0  0  2  0  0  0  0  0  0  0  0  0
   -2.7766   -0.4115    0.8208 C   0  0  0  0  0  0  0  0  0  0  0  0
   -0.8602    1.6476   -1.2329 H   0  0  0  0  0  0  0  0  0  0  0  0
    0.0424   -0.6845   -0.9878 H   0  0  0  0  0  0  0  0  0  0  0  0
   -0.0462   -0.4994    0.7857 H   0  0  0  0  0  0  0  0  0  0  0  0
   -3.2109    1.2302   -0.4379 H   0  0  0  0  0  0  0  0  0  0  0  0
   -2.8064    0.1250    1.7849 H   0  0  0  0  0  0  0  0  0  0  0  0
   -1.6956    2.6511    0.6269 H   0  0  0  0  0  0  0  0  0  0  0  0
   -3.4906   -0.6341   -1.6338 H   0  0  0  0  0  0  0  0  0  0  0  0
    3.2721   -1.9058   -1.3031 H   0  0  0  0  0  0  0  0  0  0  0  0
    3.0863   -1.5690    1.7288 H   0  0  0  0  0  0  0  0  0  0  0  0
  1  2  1  0  0  0  0
  1  5  1  0  0  0  0
  1  6  1  0  0  0  0
  1  7  2  0  0  0  0
  2 10  1  0  0  0  0
  3  9  1  0  0  0  0
  3 18  1  0  0  0  0
  4 11  1  0  0  0  0
  4 19  1  0  0  0  0
  5 20  1  0  0  0  0
  6 21  1  0  0  0  0
  8 12  2  0  0  0  0
  9 10  1  0  0  0  0
  9 11  1  0  0  0  0
  9 13  1  0  0  0  0
 10 14  1  0  0  0  0
 10 15  1  0  0  0  0
 11 12  1  0  0  0  0
 11 16  1  0  0  0  0
 12 17  1  0  0  0  0
M  END
> <PUBCHEM_COMPOUND_CID>
697

> <PUBCHEM_CONFORMER_RMSD>
0.6

> <PUBCHEM_CONFORMER_DIVERSEORDER>
1
115
17
106
48
112
59
69
105
24
6
60
111
13
99
109
20
79
23
102
108
86
30
26
80
4
104
41
2
34
116
55
87
53
81
22
44
91
78
67
35
100
61
113
36
117
97
54
29
40
28
84
85
93
33
50
110
3
5
15
21
98
16
101
51
37
63
107
96
74
12
14
95
58
77
90
43
31
46
39
38
92
65
94
62
56
114
57
10
75
49
25
7
8
47
11
82
32
19
73
66
27
88
71
89
83
64
18
42
72
103
68
52
9
70
45
76

> <PUBCHEM_MMFF94_PARTIAL_CHARGES>
17
1 1.51
10 0.28
11 0.34
12 0.45
17 0.06
18 0.4
19 0.4
2 -0.55
20 0.5
21 0.5
3 -0.68
4 -0.68
5 -0.77
6 -0.77
7 -0.7
8 -0.57
9 0.28

> <PUBCHEM_EFFECTIVE_ROTOR_COUNT>
5

> <PUBCHEM_PHARMACOPHORE_FEATURES>
9
1 3 acceptor
1 3 donor
1 4 acceptor
1 4 donor
1 5 acceptor
1 6 acceptor
1 7 acceptor
1 8 acceptor
4 1 5 6 7 anion

> <PUBCHEM_HEAVY_ATOM_COUNT>
12

> <PUBCHEM_ATOM_DEF_STEREO_COUNT>
0

> <PUBCHEM_ATOM_UDEF_STEREO_COUNT>
2

> <PUBCHEM_BOND_DEF_STEREO_COUNT>
0

> <PUBCHEM_BOND_UDEF_STEREO_COUNT>
0

> <PUBCHEM_ISOTOPIC_ATOM_COUNT>
0

> <PUBCHEM_COMPONENT_COUNT>
1

> <PUBCHEM_CACTVS_TAUTO_COUNT>
6

> <PUBCHEM_CONFORMER_ID>
000002B900000001

> <PUBCHEM_MMFF94_ENERGY>
-19.1599

> <PUBCHEM_FEATURE_SELFOVERLAP>
45.718

> <PUBCHEM_SHAPE_FINGERPRINT>
10857977 72 18273212001930924129
12932764 1 16773791468277946932
19107657 162 18411989052363986943
20201158 50 18261110789888119571
20279233 1 18334573529568508903
20281407 28 17775560935897250805
20645477 56 16733254669348364901
20645477 70 17916863491746320542
21061003 4 18131353050454587313
22169311 21 17676474034818668658
22959321 105 17749387096042203660
3248919 1 18339918217131536132

> <PUBCHEM_SHAPE_MULTIPOLES>
209.72
6.06
1.43
1.13
2.72
0.06
-0.16
-1.45
0.1
-0.48
0.33
-0.22
-0.25
0.22

> <PUBCHEM_SHAPE_SELFOVERLAP>
385.58

> <PUBCHEM_SHAPE_VOLUME>
132.6

> <PUBCHEM_COORDINATE_TYPE>
2
5
10

$$$$
