9940312
  -OEChem-08152606052D

 28 12  0     0  0  0  0  0  0999 V2000
    7.1962    7.0000    0.0000 Rh  0  0  0  0  0  0  0  0  0  0  0  0
    1.7321    7.0000    0.0000 Rh  0  0  0  0  0  0  0  0  0  0  0  0
    1.7321    2.0000    0.0000 Rh  0  0  0  0  0  0  0  0  0  0  0  0
    7.1962    2.0000    0.0000 Rh  0  0  0  0  0  0  0  0  0  0  0  0
    0.0000    3.0000    0.0000 O   0  3  0  0  0  0  0  0  0  0  0  0
    7.1962    0.0000    0.0000 O   0  3  0  0  0  0  0  0  0  0  0  0
    3.4641    3.0000    0.0000 O   0  3  0  0  0  0  0  0  0  0  0  0
    1.7321    0.0000    0.0000 O   0  3  0  0  0  0  0  0  0  0  0  0
    8.9282    3.0000    0.0000 O   0  3  0  0  0  0  0  0  0  0  0  0
    5.4641    3.0000    0.0000 O   0  3  0  0  0  0  0  0  0  0  0  0
    7.1962    5.0000    0.0000 O   0  3  0  0  0  0  0  0  0  0  0  0
    3.4641    8.0000    0.0000 O   0  3  0  0  0  0  0  0  0  0  0  0
    0.0000    8.0000    0.0000 O   0  3  0  0  0  0  0  0  0  0  0  0
    8.9282    8.0000    0.0000 O   0  3  0  0  0  0  0  0  0  0  0  0
    1.7321    5.0000    0.0000 O   0  3  0  0  0  0  0  0  0  0  0  0
    5.4641    8.0000    0.0000 O   0  3  0  0  0  0  0  0  0  0  0  0
    0.8660    2.5000    0.0000 C   0  5  0  0  0  0  0  0  0  0  0  0
    7.1962    1.0000    0.0000 C   0  5  0  0  0  0  0  0  0  0  0  0
    2.5981    2.5000    0.0000 C   0  5  0  0  0  0  0  0  0  0  0  0
    1.7321    1.0000    0.0000 C   0  5  0  0  0  0  0  0  0  0  0  0
    8.0622    2.5000    0.0000 C   0  5  0  0  0  0  0  0  0  0  0  0
    6.3301    2.5000    0.0000 C   0  5  0  0  0  0  0  0  0  0  0  0
    7.1962    6.0000    0.0000 C   0  5  0  0  0  0  0  0  0  0  0  0
    2.5981    7.5000    0.0000 C   0  5  0  0  0  0  0  0  0  0  0  0
    0.8660    7.5000    0.0000 C   0  5  0  0  0  0  0  0  0  0  0  0
    8.0622    7.5000    0.0000 C   0  5  0  0  0  0  0  0  0  0  0  0
    1.7321    6.0000    0.0000 C   0  5  0  0  0  0  0  0  0  0  0  0
    6.3301    7.5000    0.0000 C   0  5  0  0  0  0  0  0  0  0  0  0
  5 17  3  0  0  0  0
  6 18  3  0  0  0  0
  7 19  3  0  0  0  0
  8 20  3  0  0  0  0
  9 21  3  0  0  0  0
 10 22  3  0  0  0  0
 11 23  3  0  0  0  0
 12 24  3  0  0  0  0
 13 25  3  0  0  0  0
 14 26  3  0  0  0  0
 15 27  3  0  0  0  0
 16 28  3  0  0  0  0
M  CHG  8   5   1   6   1   7   1   8   1   9   1  10   1  11   1  12   1
M  CHG  8  13   1  14   1  15   1  16   1  17  -1  18  -1  19  -1  20  -1
M  CHG  8  21  -1  22  -1  23  -1  24  -1  25  -1  26  -1  27  -1  28  -1
M  END
> <PUBCHEM_COMPOUND_CID>
9940312

> <PUBCHEM_COMPOUND_CANONICALIZED>
1

> <PUBCHEM_CACTVS_COMPLEXITY>
10

> <PUBCHEM_CACTVS_HBOND_ACCEPTOR>
12

> <PUBCHEM_CACTVS_HBOND_DONOR>
0

> <PUBCHEM_CACTVS_ROTATABLE_BOND>
0

> <PUBCHEM_CACTVS_SUBSKEYS>
AAADcQBwPAAAAAAAABAAAAAAAAAAAAAAAAAAAAAAAAAAAAAAAAAAAgAAAAAAAAAAAAAAAAAAAAAAAAAAAAAAAAAAAAAAAAAAAAAAAAAAAAAAAAAAAAAAAAAAAAAAAAAAAAAAAAAAAAAAAAAAAAAAAAAAAA==

> <PUBCHEM_IUPAC_OPENEYE_NAME>
carbon monoxide;tetrakis(rhodium)

> <PUBCHEM_IUPAC_CAS_NAME>
carbon monoxide;tetrakis(rhodium)

> <PUBCHEM_IUPAC_NAME_MARKUP>
carbon monoxide;tetrakis(rhodium)

> <PUBCHEM_IUPAC_NAME>
carbon monoxide;tetrakis(rhodium)

> <PUBCHEM_IUPAC_SYSTEMATIC_NAME>
carbon monoxide;tetrakis(rhodium)

> <PUBCHEM_IUPAC_TRADITIONAL_NAME>
carbon monoxide;tetrakis(rhodium)

> <PUBCHEM_IUPAC_INCHI>
InChI=1S/12CO.4Rh/c12*1-2;;;;

> <PUBCHEM_IUPAC_INCHIKEY>
LVGLLYVYRZMJIN-UHFFFAOYSA-N

> <PUBCHEM_EXACT_MASS>
747.56095

> <PUBCHEM_MOLECULAR_FORMULA>
C12O12Rh4

> <PUBCHEM_MOLECULAR_WEIGHT>
747.74

> <PUBCHEM_SMILES>
[C-]#[O+].[C-]#[O+].[C-]#[O+].[C-]#[O+].[C-]#[O+].[C-]#[O+].[C-]#[O+].[C-]#[O+].[C-]#[O+].[C-]#[O+].[C-]#[O+].[C-]#[O+].[Rh].[Rh].[Rh].[Rh]

> <PUBCHEM_CONNECTIVITY_SMILES>
[C-]#[O+].[C-]#[O+].[C-]#[O+].[C-]#[O+].[C-]#[O+].[C-]#[O+].[C-]#[O+].[C-]#[O+].[C-]#[O+].[C-]#[O+].[C-]#[O+].[C-]#[O+].[Rh].[Rh].[Rh].[Rh]

> <PUBCHEM_CACTVS_TPSA>
12

> <PUBCHEM_MONOISOTOPIC_WEIGHT>
747.56095

> <PUBCHEM_TOTAL_CHARGE>
0

> <PUBCHEM_HEAVY_ATOM_COUNT>
28

> <PUBCHEM_ATOM_DEF_STEREO_COUNT>
0

> <PUBCHEM_ATOM_UDEF_STEREO_COUNT>
0

> <PUBCHEM_BOND_DEF_STEREO_COUNT>
0

> <PUBCHEM_BOND_UDEF_STEREO_COUNT>
0

> <PUBCHEM_ISOTOPIC_ATOM_COUNT>
0

> <PUBCHEM_COMPONENT_COUNT>
16

> <PUBCHEM_CACTVS_TAUTO_COUNT>
-1

> <PUBCHEM_COORDINATE_TYPE>
1
5
255

$$$$
