122706823
  -OEChem-08152605012D

  6  0  0     0  0  0  0  0  0999 V2000
    0.8660    3.5000    0.0000 Au  0  1  0  0  0  0  0  0  0  0  0  0
    1.3660    0.0000    0.0000 Cl  0  5  0  0  0  0  0  0  0  0  0  0
    1.7321    4.0000    0.0000 Cl  0  5  0  0  0  0  0  0  0  0  0  0
    0.0000    4.0000    0.0000 Cl  0  5  0  0  0  0  0  0  0  0  0  0
    0.8660    2.5000    0.0000 Cl  0  5  0  0  0  0  0  0  0  0  0  0
    0.3660    0.0000    0.0000 H   0  3  0  0  0  0  0  0  0  0  0  0
M  CHG  6   1   3   2  -1   3  -1   4  -1   5  -1   6   1
M  END
> <PUBCHEM_COMPOUND_CID>
122706823

> <PUBCHEM_COMPOUND_CANONICALIZED>
1

> <PUBCHEM_CACTVS_COMPLEXITY>
0

> <PUBCHEM_CACTVS_HBOND_ACCEPTOR>
4

> <PUBCHEM_CACTVS_HBOND_DONOR>
1

> <PUBCHEM_CACTVS_ROTATABLE_BOND>
0

> <PUBCHEM_CACTVS_SUBSKEYS>
AAADcQAAAAAHAAAAAAAAAgAAAAAAAAAAAAAAAAAAAAAAAAAAAAAAAAAAAAAAAAAAAAAAAAAAAAAAAAAAAAAAAAAAAAAAAAAAAAAAAAAAAAAAAAAAAAAAAAAAAAAAAAAAAAAAAAAAAAAAAAAAAAAAAAAAAA==

> <PUBCHEM_IUPAC_OPENEYE_NAME>
gold(3+);hydron;tetrachloride

> <PUBCHEM_IUPAC_CAS_NAME>
gold(3+);hydron;tetrachloride

> <PUBCHEM_IUPAC_NAME_MARKUP>
gold(3+);hydron;tetrachloride

> <PUBCHEM_IUPAC_NAME>
gold(3+);hydron;tetrachloride

> <PUBCHEM_IUPAC_SYSTEMATIC_NAME>
gold(3+);hydron;tetrachloride

> <PUBCHEM_IUPAC_TRADITIONAL_NAME>
gold(3+);hydron;tetrachloride

> <PUBCHEM_IUPAC_INCHI>
InChI=1S/Au.4ClH/h;4*1H/q+3;;;;/p-3

> <PUBCHEM_IUPAC_INCHIKEY>
VDLSFRRYNGEBEJ-UHFFFAOYSA-K

> <PUBCHEM_EXACT_MASS>
339.846856

> <PUBCHEM_MOLECULAR_FORMULA>
AuCl4H

> <PUBCHEM_MOLECULAR_WEIGHT>
339.8

> <PUBCHEM_SMILES>
[H+].[Cl-].[Cl-].[Cl-].[Cl-].[Au+3]

> <PUBCHEM_CONNECTIVITY_SMILES>
[H+].[Cl-].[Cl-].[Cl-].[Cl-].[Au+3]

> <PUBCHEM_CACTVS_TPSA>
0

> <PUBCHEM_MONOISOTOPIC_WEIGHT>
337.849806

> <PUBCHEM_TOTAL_CHARGE>
0

> <PUBCHEM_HEAVY_ATOM_COUNT>
5

> <PUBCHEM_ATOM_DEF_STEREO_COUNT>
0

> <PUBCHEM_ATOM_UDEF_STEREO_COUNT>
0

> <PUBCHEM_BOND_DEF_STEREO_COUNT>
0

> <PUBCHEM_BOND_UDEF_STEREO_COUNT>
0

> <PUBCHEM_ISOTOPIC_ATOM_COUNT>
0

> <PUBCHEM_COMPONENT_COUNT>
6

> <PUBCHEM_CACTVS_TAUTO_COUNT>
-1

> <PUBCHEM_COORDINATE_TYPE>
1
5
255

$$$$
