28118
  -OEChem-08152607182D

  6  4  0     0  0  0  0  0  0999 V2000
    1.7321    1.3660    0.0000 F   0  0  0  0  0  0  0  0  0  0  0  0
    0.0000    0.3660    0.0000 F   0  0  0  0  0  0  0  0  0  0  0  0
    0.3660    1.7321    0.0000 F   0  0  0  0  0  0  0  0  0  0  0  0
    1.3660    0.0000    0.0000 F   0  0  0  0  0  0  0  0  0  0  0  0
    0.8660    0.8660    0.0000 B   0  5  0  0  0  0  0  0  0  0  0  0
    0.6160    3.7321    0.0000 H   0  3  0  0  0  0  0  0  0  0  0  0
  1  5  1  0  0  0  0
  2  5  1  0  0  0  0
  3  5  1  0  0  0  0
  4  5  1  0  0  0  0
M  CHG  2   5  -1   6   1
M  END
> <PUBCHEM_COMPOUND_CID>
28118

> <PUBCHEM_COMPOUND_CANONICALIZED>
1

> <PUBCHEM_CACTVS_COMPLEXITY>
19.1

> <PUBCHEM_CACTVS_HBOND_ACCEPTOR>
5

> <PUBCHEM_CACTVS_HBOND_DONOR>
1

> <PUBCHEM_CACTVS_ROTATABLE_BOND>
0

> <PUBCHEM_CACTVS_SUBSKEYS>
AAADcQIAAcAAAAAAAAAAAAAAAAAAAAAAAAAAAAAAAAAAAAAAAAAEAAAAAAAAAAAAAAAAAAAAAAAAAAAAAAAAAAAAAAAAAAAAAAAAAAAAAAAAAAAAAAAAAAAAAAAAAAAAAAAAAAAAAAAAAAAAAAAAAAAAAA==

> <PUBCHEM_IUPAC_OPENEYE_NAME>
hydron tetrafluoroborate

> <PUBCHEM_IUPAC_CAS_NAME>
hydron tetrafluoroborate

> <PUBCHEM_IUPAC_NAME_MARKUP>
hydron tetrafluoroborate

> <PUBCHEM_IUPAC_NAME>
hydron tetrafluoroborate

> <PUBCHEM_IUPAC_SYSTEMATIC_NAME>
hydron tetrafluoroborate

> <PUBCHEM_IUPAC_TRADITIONAL_NAME>
hydron tetrafluoroborate

> <PUBCHEM_IUPAC_INCHI>
InChI=1S/BF4/c2-1(3,4)5/q-1/p+1

> <PUBCHEM_IUPAC_INCHIKEY>
ODGCEQLVLXJUCC-UHFFFAOYSA-O

> <PUBCHEM_EXACT_MASS>
88.0107428

> <PUBCHEM_MOLECULAR_FORMULA>
BF4H

> <PUBCHEM_MOLECULAR_WEIGHT>
87.82

> <PUBCHEM_SMILES>
[H+].[B-](F)(F)(F)F

> <PUBCHEM_CONNECTIVITY_SMILES>
[H+].[B-](F)(F)(F)F

> <PUBCHEM_CACTVS_TPSA>
0

> <PUBCHEM_MONOISOTOPIC_WEIGHT>
88.0107428

> <PUBCHEM_TOTAL_CHARGE>
0

> <PUBCHEM_HEAVY_ATOM_COUNT>
5

> <PUBCHEM_ATOM_DEF_STEREO_COUNT>
0

> <PUBCHEM_ATOM_UDEF_STEREO_COUNT>
0

> <PUBCHEM_BOND_DEF_STEREO_COUNT>
0

> <PUBCHEM_BOND_UDEF_STEREO_COUNT>
0

> <PUBCHEM_ISOTOPIC_ATOM_COUNT>
0

> <PUBCHEM_COMPONENT_COUNT>
2

> <PUBCHEM_CACTVS_TAUTO_COUNT>
-1

> <PUBCHEM_COORDINATE_TYPE>
1
5
255

$$$$
