27758
  -OEChem-08152607422D

 17 12  0     0  0  0  0  0  0999 V2000
    8.0622    0.0000    0.0000 Tl  0  1  0  0  0  0  0  0  0  0  0  0
    4.5981   -0.0000    0.0000 Tl  0  1  0  0  0  0  0  0  0  0  0  0
    6.3301    0.0000    0.0000 S   0  0  0  0  0  0  0  0  0  0  0  0
    2.8660   -0.0000    0.0000 S   0  0  0  0  0  0  0  0  0  0  0  0
    9.7942   -0.0000    0.0000 S   0  0  0  0  0  0  0  0  0  0  0  0
    7.1962    0.5000    0.0000 O   0  5  0  0  0  0  0  0  0  0  0  0
    5.4641   -0.5000    0.0000 O   0  5  0  0  0  0  0  0  0  0  0  0
    3.7321   -0.5000    0.0000 O   0  5  0  0  0  0  0  0  0  0  0  0
    4.5981    1.0000    0.0000 O   0  5  0  0  0  0  0  0  0  0  0  0
    8.9282    0.5000    0.0000 O   0  5  0  0  0  0  0  0  0  0  0  0
    8.0622   -1.0000    0.0000 O   0  5  0  0  0  0  0  0  0  0  0  0
    5.8301    0.8660    0.0000 O   0  0  0  0  0  0  0  0  0  0  0  0
    6.8301   -0.8660    0.0000 O   0  0  0  0  0  0  0  0  0  0  0  0
    2.0000    0.5000    0.0000 O   0  0  0  0  0  0  0  0  0  0  0  0
    2.3660   -0.8660    0.0000 O   0  0  0  0  0  0  0  0  0  0  0  0
   10.6603   -0.5000    0.0000 O   0  0  0  0  0  0  0  0  0  0  0  0
   10.2942    0.8660    0.0000 O   0  0  0  0  0  0  0  0  0  0  0  0
  3  6  1  0  0  0  0
  3  7  1  0  0  0  0
  3 12  2  0  0  0  0
  3 13  2  0  0  0  0
  4  8  1  0  0  0  0
  4  9  1  0  0  0  0
  4 14  2  0  0  0  0
  4 15  2  0  0  0  0
  5 10  1  0  0  0  0
  5 11  1  0  0  0  0
  5 16  2  0  0  0  0
  5 17  2  0  0  0  0
M  CHG  8   1   3   2   3   6  -1   7  -1   8  -1   9  -1  10  -1  11  -1
M  END
> <PUBCHEM_COMPOUND_CID>
27758

> <PUBCHEM_COMPOUND_CANONICALIZED>
1

> <PUBCHEM_CACTVS_COMPLEXITY>
62.2

> <PUBCHEM_CACTVS_HBOND_ACCEPTOR>
12

> <PUBCHEM_CACTVS_HBOND_DONOR>
0

> <PUBCHEM_CACTVS_ROTATABLE_BOND>
0

> <PUBCHEM_CACTVS_SUBSKEYS>
AAADcQAAPABgAAAAAAAAAIAAAAAAAAAAAAAAAAAAAAAAAAAAAAAAAAAAAAAAAAAAAAAAAAAAAAAAAAAAADAAAAAAAAAAAAAAAAAAAAAAAAAAAAAAAAAAAAAAAAAAAAAAAAAAAAAAAAAAAAAAAAAAAAAAAA==

> <PUBCHEM_IUPAC_OPENEYE_NAME>
bis(thallium(3+));trisulfate

> <PUBCHEM_IUPAC_CAS_NAME>
bis(thallium(3+));trisulfate

> <PUBCHEM_IUPAC_NAME_MARKUP>
bis(thallium(3+));trisulfate

> <PUBCHEM_IUPAC_NAME>
bis(thallium(3+));trisulfate

> <PUBCHEM_IUPAC_SYSTEMATIC_NAME>
bis(thallium(3+));trisulfate

> <PUBCHEM_IUPAC_TRADITIONAL_NAME>
bis(thallium(3+));trisulfate

> <PUBCHEM_IUPAC_INCHI>
InChI=1S/3H2O4S.2Tl/c3*1-5(2,3)4;;/h3*(H2,1,2,3,4);;/q;;;2*+3/p-6

> <PUBCHEM_IUPAC_INCHIKEY>
BXBMHLIYMZRCNK-UHFFFAOYSA-H

> <PUBCHEM_EXACT_MASS>
697.80404

> <PUBCHEM_MOLECULAR_FORMULA>
O12S3Tl2

> <PUBCHEM_MOLECULAR_WEIGHT>
697.0

> <PUBCHEM_SMILES>
[O-]S(=O)(=O)[O-].[O-]S(=O)(=O)[O-].[O-]S(=O)(=O)[O-].[Tl+3].[Tl+3]

> <PUBCHEM_CONNECTIVITY_SMILES>
[O-]S(=O)(=O)[O-].[O-]S(=O)(=O)[O-].[O-]S(=O)(=O)[O-].[Tl+3].[Tl+3]

> <PUBCHEM_CACTVS_TPSA>
266

> <PUBCHEM_MONOISOTOPIC_WEIGHT>
697.80404

> <PUBCHEM_TOTAL_CHARGE>
0

> <PUBCHEM_HEAVY_ATOM_COUNT>
17

> <PUBCHEM_ATOM_DEF_STEREO_COUNT>
0

> <PUBCHEM_ATOM_UDEF_STEREO_COUNT>
0

> <PUBCHEM_BOND_DEF_STEREO_COUNT>
0

> <PUBCHEM_BOND_UDEF_STEREO_COUNT>
0

> <PUBCHEM_ISOTOPIC_ATOM_COUNT>
0

> <PUBCHEM_COMPONENT_COUNT>
5

> <PUBCHEM_CACTVS_TAUTO_COUNT>
-1

> <PUBCHEM_COORDINATE_TYPE>
1
5
255

$$$$
