62675
  -OEChem-08152607112D

  2  1  0     0  0  0  0  0  0999 V2000
    3.0000    0.0000    0.0000 Tl  0  0  0  0  0  0  0  0  0  0  0  0
    2.0000    0.0000    0.0000 F   0  0  0  0  0  0  0  0  0  0  0  0
  1  2  1  0  0  0  0
M  END
> <PUBCHEM_COMPOUND_CID>
62675

> <PUBCHEM_COMPOUND_CANONICALIZED>
1

> <PUBCHEM_CACTVS_COMPLEXITY>
2

> <PUBCHEM_CACTVS_HBOND_ACCEPTOR>
1

> <PUBCHEM_CACTVS_HBOND_DONOR>
0

> <PUBCHEM_CACTVS_ROTATABLE_BOND>
0

> <PUBCHEM_CACTVS_SUBSKEYS>
AAADcQAAAQAAAAAAAAAAAIAAAAAAAAAAAAAAAAAAAAAAAAAAAAAAAAAAAAAAAAAAAAAAAAAAAAAAAAAAAAAAAAAAAAAAAAAAAAAAAAAAAAAAAAAAAAAAAAAAAAAAAAAAAAAAAAAAAAAAAAAAAAAAAAAAAA==

> <PUBCHEM_IUPAC_OPENEYE_NAME>
fluorothallium

> <PUBCHEM_IUPAC_CAS_NAME>
fluorothallium

> <PUBCHEM_IUPAC_NAME_MARKUP>
fluorothallium

> <PUBCHEM_IUPAC_NAME>
fluorothallium

> <PUBCHEM_IUPAC_SYSTEMATIC_NAME>
fluoranylthallium

> <PUBCHEM_IUPAC_TRADITIONAL_NAME>
fluorothallium

> <PUBCHEM_IUPAC_INCHI>
InChI=1S/FH.Tl/h1H;/q;+1/p-1

> <PUBCHEM_IUPAC_INCHIKEY>
CULOEOTWMUCRSJ-UHFFFAOYSA-M

> <PUBCHEM_EXACT_MASS>
223.97283

> <PUBCHEM_MOLECULAR_FORMULA>
FTl

> <PUBCHEM_MOLECULAR_WEIGHT>
223.382

> <PUBCHEM_SMILES>
F[Tl]

> <PUBCHEM_CONNECTIVITY_SMILES>
F[Tl]

> <PUBCHEM_CACTVS_TPSA>
0

> <PUBCHEM_MONOISOTOPIC_WEIGHT>
223.97283

> <PUBCHEM_TOTAL_CHARGE>
0

> <PUBCHEM_HEAVY_ATOM_COUNT>
2

> <PUBCHEM_ATOM_DEF_STEREO_COUNT>
0

> <PUBCHEM_ATOM_UDEF_STEREO_COUNT>
0

> <PUBCHEM_BOND_DEF_STEREO_COUNT>
0

> <PUBCHEM_BOND_UDEF_STEREO_COUNT>
0

> <PUBCHEM_ISOTOPIC_ATOM_COUNT>
0

> <PUBCHEM_COMPONENT_COUNT>
1

> <PUBCHEM_CACTVS_TAUTO_COUNT>
-1

> <PUBCHEM_COORDINATE_TYPE>
1
5
255

$$$$
