62677
  -OEChem-08152607382D

  2  1  0     0  0  0  0  0  0999 V2000
    3.0000    0.0000    0.0000 Tl  0  0  0  0  0  0  0  0  0  0  0  0
    2.0000    0.0000    0.0000 Br  0  0  0  0  0  0  0  0  0  0  0  0
  1  2  1  0  0  0  0
M  END
> <PUBCHEM_COMPOUND_CID>
62677

> <PUBCHEM_COMPOUND_CANONICALIZED>
1

> <PUBCHEM_CACTVS_COMPLEXITY>
2

> <PUBCHEM_CACTVS_HBOND_ACCEPTOR>
0

> <PUBCHEM_CACTVS_HBOND_DONOR>
0

> <PUBCHEM_CACTVS_ROTATABLE_BOND>
0

> <PUBCHEM_CACTVS_SUBSKEYS>
AAADcQAAAAAAEAAAAAAAAIAAAAAAAAAAAAAAAAAAAAAAAAAAAAAAAAAAAAAAAAAAAAAAAAAAAAAAAAAAAAAAAAAAAAAAAAAAAAAAAAAAAAAAAAAAAAAAAAAAAAAAAAAAAAAAAAAAAAAAAAAAAAAAAAAAAA==

> <PUBCHEM_IUPAC_OPENEYE_NAME>
bromothallium

> <PUBCHEM_IUPAC_CAS_NAME>
bromothallium

> <PUBCHEM_IUPAC_NAME_MARKUP>
bromothallium

> <PUBCHEM_IUPAC_NAME>
bromothallium

> <PUBCHEM_IUPAC_SYSTEMATIC_NAME>
bromanylthallium

> <PUBCHEM_IUPAC_TRADITIONAL_NAME>
bromothallium

> <PUBCHEM_IUPAC_INCHI>
InChI=1S/BrH.Tl/h1H;/q;+1/p-1

> <PUBCHEM_IUPAC_INCHIKEY>
PGAPATLGJSQQBU-UHFFFAOYSA-M

> <PUBCHEM_EXACT_MASS>
283.89276

> <PUBCHEM_MOLECULAR_FORMULA>
BrTl

> <PUBCHEM_MOLECULAR_WEIGHT>
284.29

> <PUBCHEM_SMILES>
Br[Tl]

> <PUBCHEM_CONNECTIVITY_SMILES>
Br[Tl]

> <PUBCHEM_CACTVS_TPSA>
0

> <PUBCHEM_MONOISOTOPIC_WEIGHT>
283.89276

> <PUBCHEM_TOTAL_CHARGE>
0

> <PUBCHEM_HEAVY_ATOM_COUNT>
2

> <PUBCHEM_ATOM_DEF_STEREO_COUNT>
0

> <PUBCHEM_ATOM_UDEF_STEREO_COUNT>
0

> <PUBCHEM_BOND_DEF_STEREO_COUNT>
0

> <PUBCHEM_BOND_UDEF_STEREO_COUNT>
0

> <PUBCHEM_ISOTOPIC_ATOM_COUNT>
0

> <PUBCHEM_COMPONENT_COUNT>
1

> <PUBCHEM_CACTVS_TAUTO_COUNT>
-1

> <PUBCHEM_COORDINATE_TYPE>
1
5
255

$$$$
