16683485
  -OEChem-08152605592D

  3  2  0     0  0  0  0  0  0999 V2000
    3.7321    0.2500    0.0000 Tl  0  0  0  0  0  0  0  0  0  0  0  0
    2.0000    0.2500    0.0000 Tl  0  0  0  0  0  0  0  0  0  0  0  0
    2.8660   -0.2500    0.0000 S   0  0  0  0  0  0  0  0  0  0  0  0
  1  3  1  0  0  0  0
  2  3  1  0  0  0  0
M  END
> <PUBCHEM_COMPOUND_CID>
16683485

> <PUBCHEM_COMPOUND_CANONICALIZED>
1

> <PUBCHEM_CACTVS_COMPLEXITY>
2.8

> <PUBCHEM_CACTVS_HBOND_ACCEPTOR>
1

> <PUBCHEM_CACTVS_HBOND_DONOR>
0

> <PUBCHEM_CACTVS_ROTATABLE_BOND>
0

> <PUBCHEM_CACTVS_SUBSKEYS>
AAADcQAAAABAAAAAAAAAAIAAAAAAAAAAAAAAAAAAAAAAAAAAAAAAAAAAAAAAAAAAAAAAAAAAAAAAAAAAAAAAAAAAAAAAAAAAAAAAAAAAAAAAAAAAAAAAAAAAAAAAAAAAAAAAAAAAAAAAAAAAAAAAAAAAAA==

> <PUBCHEM_IUPAC_OPENEYE_NAME>
lambda1-thallanylsulfanylthallium

> <PUBCHEM_IUPAC_CAS_NAME>
(lambda1-thallanylthio)thallium

> <PUBCHEM_IUPAC_NAME_MARKUP>
&lambda;<SUP>1</SUP>-thallanylsulfanylthallium

> <PUBCHEM_IUPAC_NAME>
lambda1-thallanylsulfanylthallium

> <PUBCHEM_IUPAC_SYSTEMATIC_NAME>
lambda1-thallanylsulfanylthallium

> <PUBCHEM_IUPAC_TRADITIONAL_NAME>
(lambda1-thallanylthio)thallium

> <PUBCHEM_IUPAC_INCHI>
InChI=1S/S.2Tl

> <PUBCHEM_IUPAC_INCHIKEY>
YYOMHJQQXKRHAM-UHFFFAOYSA-N

> <PUBCHEM_EXACT_MASS>
441.92093

> <PUBCHEM_MOLECULAR_FORMULA>
STl2

> <PUBCHEM_MOLECULAR_WEIGHT>
440.83

> <PUBCHEM_SMILES>
S([Tl])[Tl]

> <PUBCHEM_CONNECTIVITY_SMILES>
S([Tl])[Tl]

> <PUBCHEM_CACTVS_TPSA>
25.3

> <PUBCHEM_MONOISOTOPIC_WEIGHT>
441.92093

> <PUBCHEM_TOTAL_CHARGE>
0

> <PUBCHEM_HEAVY_ATOM_COUNT>
3

> <PUBCHEM_ATOM_DEF_STEREO_COUNT>
0

> <PUBCHEM_ATOM_UDEF_STEREO_COUNT>
0

> <PUBCHEM_BOND_DEF_STEREO_COUNT>
0

> <PUBCHEM_BOND_UDEF_STEREO_COUNT>
0

> <PUBCHEM_ISOTOPIC_ATOM_COUNT>
0

> <PUBCHEM_COMPONENT_COUNT>
1

> <PUBCHEM_CACTVS_TAUTO_COUNT>
-1

> <PUBCHEM_COORDINATE_TYPE>
1
5
255

$$$$
