10904204
  -OEChem-08152605042D

  8  6  0     0  0  0  0  0  0999 V2000
    0.6160    0.0000    0.0000 Tl  0  3  0  0  0  0  0  0  0  0  0  0
    0.8660    3.5000    0.0000 P   0  5  0  0  0  0  0  0  0  0  0  0
    1.7320    4.0000    0.0000 F   0  0  0  0  0  0  0  0  0  0  0  0
    0.0000    3.0000    0.0000 F   0  0  0  0  0  0  0  0  0  0  0  0
    0.0000    4.0000    0.0000 F   0  0  0  0  0  0  0  0  0  0  0  0
    0.8660    2.5000    0.0000 F   0  0  0  0  0  0  0  0  0  0  0  0
    0.8660    4.5000    0.0000 F   0  0  0  0  0  0  0  0  0  0  0  0
    1.7320    3.0000    0.0000 F   0  0  0  0  0  0  0  0  0  0  0  0
  2  3  1  0  0  0  0
  2  4  1  0  0  0  0
  2  5  1  0  0  0  0
  2  6  1  0  0  0  0
  2  7  1  0  0  0  0
  2  8  1  0  0  0  0
M  CHG  2   1   1   2  -1
M  END
> <PUBCHEM_COMPOUND_CID>
10904204

> <PUBCHEM_COMPOUND_CANONICALIZED>
1

> <PUBCHEM_CACTVS_COMPLEXITY>
62.7

> <PUBCHEM_CACTVS_HBOND_ACCEPTOR>
7

> <PUBCHEM_CACTVS_HBOND_DONOR>
0

> <PUBCHEM_CACTVS_ROTATABLE_BOND>
0

> <PUBCHEM_CACTVS_SUBSKEYS>
AAADcQAAAcIAAAAAAAAAAIAAAAAAAAAAAAAAAAAAAAAAAAAAAAAAAAAAAAgAAAAAAAAAAAAAAAAAAAAAAAAAAAAAAAAAAAAAAAAAAAAAAAAAAAAAAAAAAAAAAAAAAAAAAAAAAAAAAAAAAAAAAAAAAAAAAA==

> <PUBCHEM_IUPAC_OPENEYE_NAME>
thallium(1+) hexafluorophosphate

> <PUBCHEM_IUPAC_CAS_NAME>
thallium(1+) hexafluorophosphate

> <PUBCHEM_IUPAC_NAME_MARKUP>
thallium(1+) hexafluorophosphate

> <PUBCHEM_IUPAC_NAME>
thallium(1+) hexafluorophosphate

> <PUBCHEM_IUPAC_SYSTEMATIC_NAME>
thallium(1+) hexafluorophosphate

> <PUBCHEM_IUPAC_TRADITIONAL_NAME>
thallium(1+) hexafluorophosphate

> <PUBCHEM_IUPAC_INCHI>
InChI=1S/F6P.Tl/c1-7(2,3,4,5)6;/q-1;+1

> <PUBCHEM_IUPAC_INCHIKEY>
FRZBCOUMLHRKRT-UHFFFAOYSA-N

> <PUBCHEM_EXACT_MASS>
349.93861

> <PUBCHEM_MOLECULAR_FORMULA>
F6PTl

> <PUBCHEM_MOLECULAR_WEIGHT>
349.348

> <PUBCHEM_SMILES>
F[P-](F)(F)(F)(F)F.[Tl+]

> <PUBCHEM_CONNECTIVITY_SMILES>
F[P-](F)(F)(F)(F)F.[Tl+]

> <PUBCHEM_CACTVS_TPSA>
0

> <PUBCHEM_MONOISOTOPIC_WEIGHT>
349.93861

> <PUBCHEM_TOTAL_CHARGE>
0

> <PUBCHEM_HEAVY_ATOM_COUNT>
8

> <PUBCHEM_ATOM_DEF_STEREO_COUNT>
0

> <PUBCHEM_ATOM_UDEF_STEREO_COUNT>
0

> <PUBCHEM_BOND_DEF_STEREO_COUNT>
0

> <PUBCHEM_BOND_UDEF_STEREO_COUNT>
0

> <PUBCHEM_ISOTOPIC_ATOM_COUNT>
0

> <PUBCHEM_COMPONENT_COUNT>
2

> <PUBCHEM_CACTVS_TAUTO_COUNT>
-1

> <PUBCHEM_COORDINATE_TYPE>
1
5
255

$$$$
