101939
  -OEChem-08152604332D

  5  3  0     0  0  0  0  0  0999 V2000
    2.0000   -0.0600    0.0000 Tl  0  3  0  0  0  0  0  0  0  0  0  0
    2.8660   -0.5600    0.0000 O   0  5  0  0  0  0  0  0  0  0  0  0
    4.5981   -0.5600    0.0000 O   0  0  0  0  0  0  0  0  0  0  0  0
    3.7321   -0.0600    0.0000 C   0  0  0  0  0  0  0  0  0  0  0  0
    3.7321    0.5600    0.0000 H   0  0  0  0  0  0  0  0  0  0  0  0
  2  4  1  0  0  0  0
  3  4  2  0  0  0  0
  4  5  1  0  0  0  0
M  CHG  2   1   1   2  -1
M  END
> <PUBCHEM_COMPOUND_CID>
101939

> <PUBCHEM_COMPOUND_CANONICALIZED>
1

> <PUBCHEM_CACTVS_COMPLEXITY>
7.5

> <PUBCHEM_CACTVS_HBOND_ACCEPTOR>
2

> <PUBCHEM_CACTVS_HBOND_DONOR>
0

> <PUBCHEM_CACTVS_ROTATABLE_BOND>
0

> <PUBCHEM_CACTVS_SUBSKEYS>
AAADcQAAMAAAAAAAAAAAAIAAAAAAAAAAAAAAAAAAAAAAAAAAAAAAEgAAAAAAAAAAAAMACAAAAAAIAAAAiAAAAAAAAAAAAAAAAAAAAAAAAAAAAAAAAAAAAAAAAAAAAAAAAAAAAAAAAAAAAAAAAAAAAAAAAA==

> <PUBCHEM_IUPAC_OPENEYE_NAME>
thallium(1+) formate

> <PUBCHEM_IUPAC_CAS_NAME>
thallium(1+) formate

> <PUBCHEM_IUPAC_NAME_MARKUP>
thallium(1+) formate

> <PUBCHEM_IUPAC_NAME>
thallium(1+) formate

> <PUBCHEM_IUPAC_SYSTEMATIC_NAME>
thallium(1+) methanoate

> <PUBCHEM_IUPAC_TRADITIONAL_NAME>
thallium(1+) formate

> <PUBCHEM_IUPAC_INCHI>
InChI=1S/CH2O2.Tl/c2-1-3;/h1H,(H,2,3);/q;+1/p-1

> <PUBCHEM_IUPAC_INCHIKEY>
UESISTHQAYQMRA-UHFFFAOYSA-M

> <PUBCHEM_EXACT_MASS>
249.97208

> <PUBCHEM_MOLECULAR_FORMULA>
CHO2Tl

> <PUBCHEM_MOLECULAR_WEIGHT>
249.40

> <PUBCHEM_SMILES>
C(=O)[O-].[Tl+]

> <PUBCHEM_CONNECTIVITY_SMILES>
C(=O)[O-].[Tl+]

> <PUBCHEM_CACTVS_TPSA>
40.1

> <PUBCHEM_MONOISOTOPIC_WEIGHT>
249.97208

> <PUBCHEM_TOTAL_CHARGE>
0

> <PUBCHEM_HEAVY_ATOM_COUNT>
4

> <PUBCHEM_ATOM_DEF_STEREO_COUNT>
0

> <PUBCHEM_ATOM_UDEF_STEREO_COUNT>
0

> <PUBCHEM_BOND_DEF_STEREO_COUNT>
0

> <PUBCHEM_BOND_UDEF_STEREO_COUNT>
0

> <PUBCHEM_ISOTOPIC_ATOM_COUNT>
0

> <PUBCHEM_COMPONENT_COUNT>
2

> <PUBCHEM_CACTVS_TAUTO_COUNT>
-1

> <PUBCHEM_COORDINATE_TYPE>
1
5
255

$$$$
