24937
  -OEChem-08152605372D

  5  3  0     0  0  0  0  0  0999 V2000
    4.5981    0.2500    0.0000 Tl  0  3  0  0  0  0  0  0  0  0  0  0
    2.0000    0.7500    0.0000 O   0  5  0  0  0  0  0  0  0  0  0  0
    3.7321    0.7500    0.0000 O   0  5  0  0  0  0  0  0  0  0  0  0
    2.8660   -0.7500    0.0000 O   0  0  0  0  0  0  0  0  0  0  0  0
    2.8660    0.2500    0.0000 N   0  3  0  0  0  0  0  0  0  0  0  0
  2  5  1  0  0  0  0
  3  5  1  0  0  0  0
  4  5  2  0  0  0  0
M  CHG  4   1   1   2  -1   3  -1   5   1
M  END
> <PUBCHEM_COMPOUND_CID>
24937

> <PUBCHEM_COMPOUND_CANONICALIZED>
1

> <PUBCHEM_CACTVS_COMPLEXITY>
18.8

> <PUBCHEM_CACTVS_HBOND_ACCEPTOR>
3

> <PUBCHEM_CACTVS_HBOND_DONOR>
0

> <PUBCHEM_CACTVS_ROTATABLE_BOND>
0

> <PUBCHEM_CACTVS_SUBSKEYS>
AAADcQACMAAAAAAAAAAAAIAAAAAAAAAAAAAAAAAAAAAAAAAAAAAAAAAEAAAAAAAAAAAAAAAAQAABAAAAAQAAAAAAAAAAAAAAAAAAAAAAAAAAAAAAAAAAAAAAAAAAAAAAAAAAAAAAAAAAAAAAAAAAAAAAAA==

> <PUBCHEM_IUPAC_OPENEYE_NAME>
thallium(1+) nitrate

> <PUBCHEM_IUPAC_CAS_NAME>
thallium(1+) nitrate

> <PUBCHEM_IUPAC_NAME_MARKUP>
thallium(1+) nitrate

> <PUBCHEM_IUPAC_NAME>
thallium(1+) nitrate

> <PUBCHEM_IUPAC_SYSTEMATIC_NAME>
thallium(1+) nitrate

> <PUBCHEM_IUPAC_TRADITIONAL_NAME>
thallium(1+) nitrate

> <PUBCHEM_IUPAC_INCHI>
InChI=1S/NO3.Tl/c2-1(3)4;/q-1;+1

> <PUBCHEM_IUPAC_INCHIKEY>
FYWSTUCDSVYLPV-UHFFFAOYSA-N

> <PUBCHEM_EXACT_MASS>
266.96225

> <PUBCHEM_MOLECULAR_FORMULA>
NO3Tl

> <PUBCHEM_MOLECULAR_WEIGHT>
266.39

> <PUBCHEM_SMILES>
[N+](=O)([O-])[O-].[Tl+]

> <PUBCHEM_CONNECTIVITY_SMILES>
[N+](=O)([O-])[O-].[Tl+]

> <PUBCHEM_CACTVS_TPSA>
62.9

> <PUBCHEM_MONOISOTOPIC_WEIGHT>
266.96225

> <PUBCHEM_TOTAL_CHARGE>
0

> <PUBCHEM_HEAVY_ATOM_COUNT>
5

> <PUBCHEM_ATOM_DEF_STEREO_COUNT>
0

> <PUBCHEM_ATOM_UDEF_STEREO_COUNT>
0

> <PUBCHEM_BOND_DEF_STEREO_COUNT>
0

> <PUBCHEM_BOND_UDEF_STEREO_COUNT>
0

> <PUBCHEM_ISOTOPIC_ATOM_COUNT>
0

> <PUBCHEM_COMPONENT_COUNT>
2

> <PUBCHEM_CACTVS_TAUTO_COUNT>
-1

> <PUBCHEM_COORDINATE_TYPE>
1
5
255

$$$$
