25147463
  -OEChem-08152607252D

  3  0  0     0  0  0  0  0  0999 V2000
    3.7320    0.2500    0.0000 Tl  0  4  0  0  0  0  0  0  0  0  0  0
    2.0000    0.2500    0.0000 Tl  0  4  0  0  0  0  0  0  0  0  0  0
    2.8660   -0.2500    0.0000 Te  0  0  0  0  0 15  0  0  0  0  0  0
M  RAD  2   1   2   2   2
M  END
> <PUBCHEM_COMPOUND_CID>
25147463

> <PUBCHEM_COMPOUND_CANONICALIZED>
1

> <PUBCHEM_CACTVS_COMPLEXITY>
2.8

> <PUBCHEM_CACTVS_HBOND_ACCEPTOR>
0

> <PUBCHEM_CACTVS_HBOND_DONOR>
0

> <PUBCHEM_CACTVS_ROTATABLE_BOND>
0

> <PUBCHEM_CACTVS_SUBSKEYS>
AAADcQAAAAAAAAAAAAAgAIAAAAAAAAAAAAAAAAAAAAAAAAAAAAAAAAAAAAAAAAAAAAAAAAAAAAAAAAAAAAAAAAAAAAAAAAAAAAAAAAAAAAAAAAAAAAAAAAAAAAAAAAAAAAAAAAAAAAAAAAAAAAAAAAAAAA==

> <PUBCHEM_IUPAC_INCHI>
InChI=1S/Te.2Tl

> <PUBCHEM_IUPAC_INCHIKEY>
HWLBIGWNGQFXNG-UHFFFAOYSA-N

> <PUBCHEM_EXACT_MASS>
539.85508

> <PUBCHEM_MOLECULAR_FORMULA>
TeTl2

> <PUBCHEM_MOLECULAR_WEIGHT>
536.4

> <PUBCHEM_SMILES>
[Te].[Tl].[Tl]

> <PUBCHEM_CONNECTIVITY_SMILES>
[Te].[Tl].[Tl]

> <PUBCHEM_CACTVS_TPSA>
0

> <PUBCHEM_MONOISOTOPIC_WEIGHT>
539.85508

> <PUBCHEM_TOTAL_CHARGE>
0

> <PUBCHEM_HEAVY_ATOM_COUNT>
3

> <PUBCHEM_ATOM_DEF_STEREO_COUNT>
0

> <PUBCHEM_ATOM_UDEF_STEREO_COUNT>
0

> <PUBCHEM_BOND_DEF_STEREO_COUNT>
0

> <PUBCHEM_BOND_UDEF_STEREO_COUNT>
0

> <PUBCHEM_ISOTOPIC_ATOM_COUNT>
0

> <PUBCHEM_COMPONENT_COUNT>
3

> <PUBCHEM_CACTVS_TAUTO_COUNT>
-1

> <PUBCHEM_NONSTANDARDBOND>
1  3  6
2  3  6

> <PUBCHEM_COORDINATE_TYPE>
1
5
255

$$$$
