74880
  -OEChem-08152604392D

 17 14  0     0  0  0  0  0  0999 V2000
    3.3987    0.0000    0.0000 Th  0  0  0  0  0  0  0  0  0  0  0  0
    2.5897    0.5878    0.0000 O   0  0  0  0  0  0  0  0  0  0  0  0
    4.2077    0.5878    0.0000 O   0  0  0  0  0  0  0  0  0  0  0  0
    4.2077   -0.5878    0.0000 O   0  0  0  0  0  0  0  0  0  0  0  0
    2.5897   -0.5878    0.0000 O   0  0  0  0  0  0  0  0  0  0  0  0
    2.3109    2.3479    0.0000 O   0  0  0  0  0  0  0  0  0  0  0  0
    4.4865    2.3479    0.0000 O   0  0  0  0  0  0  0  0  0  0  0  0
    4.4865   -2.3479    0.0000 O   0  0  0  0  0  0  0  0  0  0  0  0
    2.3109   -2.3479    0.0000 O   0  0  0  0  0  0  0  0  0  0  0  0
    2.8987    1.5388    0.0000 C   0  0  0  0  0  0  0  0  0  0  0  0
    3.8987    1.5388    0.0000 C   0  0  0  0  0  0  0  0  0  0  0  0
    3.8987   -1.5388    0.0000 C   0  0  0  0  0  0  0  0  0  0  0  0
    2.8987   -1.5388    0.0000 C   0  0  0  0  0  0  0  0  0  0  0  0
    2.0000    0.3962    0.0000 H   0  0  0  0  0  0  0  0  0  0  0  0
    4.7973    0.3962    0.0000 H   0  0  0  0  0  0  0  0  0  0  0  0
    4.7973   -0.3962    0.0000 H   0  0  0  0  0  0  0  0  0  0  0  0
    2.0000   -0.3962    0.0000 H   0  0  0  0  0  0  0  0  0  0  0  0
  2 10  1  0  0  0  0
  2 14  1  0  0  0  0
  3 11  1  0  0  0  0
  3 15  1  0  0  0  0
  4 12  1  0  0  0  0
  4 16  1  0  0  0  0
  5 13  1  0  0  0  0
  5 17  1  0  0  0  0
  6 10  2  0  0  0  0
  7 11  2  0  0  0  0
  8 12  2  0  0  0  0
  9 13  2  0  0  0  0
 10 11  1  0  0  0  0
 12 13  1  0  0  0  0
M  END
> <PUBCHEM_COMPOUND_CID>
74880

> <PUBCHEM_COMPOUND_CANONICALIZED>
1

> <PUBCHEM_CACTVS_COMPLEXITY>
172

> <PUBCHEM_CACTVS_HBOND_ACCEPTOR>
8

> <PUBCHEM_CACTVS_HBOND_DONOR>
4

> <PUBCHEM_CACTVS_ROTATABLE_BOND>
0

> <PUBCHEM_CACTVS_SUBSKEYS>
AAADcYBgPAAAAAAAAAAAAAAAAAAAASJAAAAAAAAAAAAAAAAAAAAACgAACAAAAAAAgAAACAAAAgAIAACQCAIAAAAAAAAAAABAAAABAAAAAAAAAAAAAAABAAAAAAAAAAAAAAAAAAAAAAAAAAAAAAAAAAAAAA==

> <PUBCHEM_IUPAC_OPENEYE_NAME>
oxalic acid;thorium

> <PUBCHEM_IUPAC_CAS_NAME>
oxalic acid;thorium

> <PUBCHEM_IUPAC_NAME_MARKUP>
oxalic acid;thorium

> <PUBCHEM_IUPAC_NAME>
oxalic acid;thorium

> <PUBCHEM_IUPAC_SYSTEMATIC_NAME>
bis(ethanedioic acid);thorium

> <PUBCHEM_IUPAC_TRADITIONAL_NAME>
oxalic acid;thorium

> <PUBCHEM_IUPAC_INCHI>
InChI=1S/2C2H2O4.Th/c2*3-1(4)2(5)6;/h2*(H,3,4)(H,5,6);

> <PUBCHEM_IUPAC_INCHIKEY>
MVVXFNGAKVVFBW-UHFFFAOYSA-N

> <PUBCHEM_EXACT_MASS>
412.02867

> <PUBCHEM_MOLECULAR_FORMULA>
C4H4O8Th

> <PUBCHEM_MOLECULAR_WEIGHT>
412.11

> <PUBCHEM_SMILES>
C(=O)(C(=O)O)O.C(=O)(C(=O)O)O.[Th]

> <PUBCHEM_CONNECTIVITY_SMILES>
C(=O)(C(=O)O)O.C(=O)(C(=O)O)O.[Th]

> <PUBCHEM_CACTVS_TPSA>
149

> <PUBCHEM_MONOISOTOPIC_WEIGHT>
412.02867

> <PUBCHEM_TOTAL_CHARGE>
0

> <PUBCHEM_HEAVY_ATOM_COUNT>
13

> <PUBCHEM_ATOM_DEF_STEREO_COUNT>
0

> <PUBCHEM_ATOM_UDEF_STEREO_COUNT>
0

> <PUBCHEM_BOND_DEF_STEREO_COUNT>
0

> <PUBCHEM_BOND_UDEF_STEREO_COUNT>
0

> <PUBCHEM_ISOTOPIC_ATOM_COUNT>
0

> <PUBCHEM_COMPONENT_COUNT>
3

> <PUBCHEM_CACTVS_TAUTO_COUNT>
-1

> <PUBCHEM_NONSTANDARDBOND>
1  2  6
1  3  6
1  4  6
1  5  6

> <PUBCHEM_COORDINATE_TYPE>
1
5
255

$$$$
