105150
  -OEChem-08152605012D

  1  0  0     0  0  0  0  0  0999 V2000
    2.0000    0.0000    0.0000 Th  0  0  0  0  0  0  0  0  0  0  0  0
M  CHG  1   1   4
M  END
> <PUBCHEM_COMPOUND_CID>
105150

> <PUBCHEM_COMPOUND_CANONICALIZED>
1

> <PUBCHEM_CACTVS_COMPLEXITY>
0

> <PUBCHEM_CACTVS_HBOND_ACCEPTOR>
0

> <PUBCHEM_CACTVS_HBOND_DONOR>
0

> <PUBCHEM_CACTVS_ROTATABLE_BOND>
0

> <PUBCHEM_CACTVS_SUBSKEYS>
AAADcQAAAAAAAAAAAAAAAAAAAAAAAAAAAAAAAAAAAAAAAAAAAAAAAAAAAAAAAAAAAAAAAAAAAAAAAAAAAAAAAAAAAAAAAAAAAAAAAAAAAAAAAAAAAAAAAAAAAAAAAAAAAAAAAAAAAAAAAAAAAAAAAAAAAA==

> <PUBCHEM_IUPAC_OPENEYE_NAME>
thorium(4+)

> <PUBCHEM_IUPAC_CAS_NAME>
thorium(4+)

> <PUBCHEM_IUPAC_NAME_MARKUP>
thorium(4+)

> <PUBCHEM_IUPAC_NAME>
thorium(4+)

> <PUBCHEM_IUPAC_SYSTEMATIC_NAME>
thorium(4+)

> <PUBCHEM_IUPAC_TRADITIONAL_NAME>
thorium(4+)

> <PUBCHEM_IUPAC_INCHI>
InChI=1S/Th/q+4

> <PUBCHEM_IUPAC_INCHIKEY>
YMURPAJPLBCAQW-UHFFFAOYSA-N

> <PUBCHEM_EXACT_MASS>
232.03805

> <PUBCHEM_MOLECULAR_FORMULA>
Th+4

> <PUBCHEM_MOLECULAR_WEIGHT>
232.038

> <PUBCHEM_SMILES>
[Th+4]

> <PUBCHEM_CONNECTIVITY_SMILES>
[Th+4]

> <PUBCHEM_CACTVS_TPSA>
0

> <PUBCHEM_MONOISOTOPIC_WEIGHT>
232.03805

> <PUBCHEM_TOTAL_CHARGE>
4

> <PUBCHEM_HEAVY_ATOM_COUNT>
1

> <PUBCHEM_ATOM_DEF_STEREO_COUNT>
0

> <PUBCHEM_ATOM_UDEF_STEREO_COUNT>
0

> <PUBCHEM_BOND_DEF_STEREO_COUNT>
0

> <PUBCHEM_BOND_UDEF_STEREO_COUNT>
0

> <PUBCHEM_ISOTOPIC_ATOM_COUNT>
0

> <PUBCHEM_COMPONENT_COUNT>
1

> <PUBCHEM_CACTVS_TAUTO_COUNT>
-1

> <PUBCHEM_COORDINATE_TYPE>
1
5
255

$$$$
