44135918
  -OEChem-08152605482D

  5  4  0     0  0  0  0  0  0999 V2000
    2.5318    0.7351    0.0000 Th  0  0  0  0  0  0  0  0  0  0  0  0
    2.0939   -0.7351    0.0000 B   0  4  0  0  0  0  0  0  0  0  0  0
    2.8290   -0.7351    0.0000 B   0  4  0  0  0  0  0  0  0  0  0  0
    3.0010   -0.1877    0.0000 B   0  4  0  0  0  0  0  0  0  0  0  0
    2.0000   -0.1877    0.0000 B   0  4  0  0  0  0  0  0  0  0  0  0
  2  3  1  0  0  0  0
  2  5  1  0  0  0  0
  3  4  1  0  0  0  0
  4  5  1  0  0  0  0
M  RAD  4   2   2   3   2   4   2   5   2
M  END
> <PUBCHEM_COMPOUND_CID>
44135918

> <PUBCHEM_COMPOUND_CANONICALIZED>
1

> <PUBCHEM_CACTVS_COMPLEXITY>
11.6

> <PUBCHEM_CACTVS_HBOND_ACCEPTOR>
0

> <PUBCHEM_CACTVS_HBOND_DONOR>
0

> <PUBCHEM_CACTVS_ROTATABLE_BOND>
0

> <PUBCHEM_CACTVS_SUBSKEYS>
AAADcQOAAAAAAAAAAAAAAAAAEiRIkAAAAAAAAAAAAAAAAAAAAABAAAAAAAAAAAAAAAAAAAAAAAAAAAAAAAAAAAAAAAAAAAAAAAAAAAAAAAAAAAAAAAAAAAAAAAAAAAAAAAAAAAAAAAAAAAAAAAAAAAAAAA==

> <PUBCHEM_IUPAC_INCHI>
InChI=1S/B4.Th/c1-2-4-3-1;

> <PUBCHEM_IUPAC_INCHIKEY>
ZGYKGUIPMOLAET-UHFFFAOYSA-N

> <PUBCHEM_EXACT_MASS>
276.07527

> <PUBCHEM_MOLECULAR_FORMULA>
B4Th

> <PUBCHEM_MOLECULAR_WEIGHT>
275.3

> <PUBCHEM_SMILES>
[B]1[B][B][B]1.[Th]

> <PUBCHEM_CONNECTIVITY_SMILES>
[B]1[B][B][B]1.[Th]

> <PUBCHEM_CACTVS_TPSA>
0

> <PUBCHEM_MONOISOTOPIC_WEIGHT>
276.07527

> <PUBCHEM_TOTAL_CHARGE>
0

> <PUBCHEM_HEAVY_ATOM_COUNT>
5

> <PUBCHEM_ATOM_DEF_STEREO_COUNT>
0

> <PUBCHEM_ATOM_UDEF_STEREO_COUNT>
0

> <PUBCHEM_BOND_DEF_STEREO_COUNT>
0

> <PUBCHEM_BOND_UDEF_STEREO_COUNT>
0

> <PUBCHEM_ISOTOPIC_ATOM_COUNT>
0

> <PUBCHEM_COMPONENT_COUNT>
2

> <PUBCHEM_CACTVS_TAUTO_COUNT>
-1

> <PUBCHEM_NONSTANDARDBOND>
1  2  6
1  3  6
1  4  6
1  5  6

> <PUBCHEM_COORDINATE_TYPE>
1
5
255

$$$$
