71310252
  -OEChem-08152606162D

 26 21  0     0  0  0  0  0  0999 V2000
    5.1307    2.0000    0.0000 Tm  0  0  0  0  0  0  0  0  0  0  0  0
    3.3987   -2.0000    0.0000 Tm  0  0  0  0  0  0  0  0  0  0  0  0
    4.3217    2.5878    0.0000 O   0  0  0  0  0  0  0  0  0  0  0  0
    5.9397    2.5878    0.0000 O   0  0  0  0  0  0  0  0  0  0  0  0
    2.5897   -2.5878    0.0000 O   0  0  0  0  0  0  0  0  0  0  0  0
    4.2077   -2.5878    0.0000 O   0  0  0  0  0  0  0  0  0  0  0  0
    5.1307    1.0000    0.0000 O   0  0  0  0  0  0  0  0  0  0  0  0
    3.3987   -1.0000    0.0000 O   0  0  0  0  0  0  0  0  0  0  0  0
    4.0429    4.3479    0.0000 O   0  0  0  0  0  0  0  0  0  0  0  0
    6.2185    4.3479    0.0000 O   0  0  0  0  0  0  0  0  0  0  0  0
    2.3109   -4.3479    0.0000 O   0  0  0  0  0  0  0  0  0  0  0  0
    4.4865   -4.3479    0.0000 O   0  0  0  0  0  0  0  0  0  0  0  0
    3.3987    1.0000    0.0000 O   0  0  0  0  0  0  0  0  0  0  0  0
    5.1307   -1.0000    0.0000 O   0  0  0  0  0  0  0  0  0  0  0  0
    4.6307    3.5388    0.0000 C   0  0  0  0  0  0  0  0  0  0  0  0
    5.6307    3.5388    0.0000 C   0  0  0  0  0  0  0  0  0  0  0  0
    2.8987   -3.5388    0.0000 C   0  0  0  0  0  0  0  0  0  0  0  0
    3.8987   -3.5388    0.0000 C   0  0  0  0  0  0  0  0  0  0  0  0
    4.2647    0.5000    0.0000 C   0  0  0  0  0  0  0  0  0  0  0  0
    4.2647   -0.5000    0.0000 C   0  0  0  0  0  0  0  0  0  0  0  0
    3.7321    2.3962    0.0000 H   0  0  0  0  0  0  0  0  0  0  0  0
    6.5294    2.3962    0.0000 H   0  0  0  0  0  0  0  0  0  0  0  0
    2.0000   -2.3962    0.0000 H   0  0  0  0  0  0  0  0  0  0  0  0
    4.7973   -2.3962    0.0000 H   0  0  0  0  0  0  0  0  0  0  0  0
    5.6677    0.6900    0.0000 H   0  0  0  0  0  0  0  0  0  0  0  0
    2.8617   -0.6900    0.0000 H   0  0  0  0  0  0  0  0  0  0  0  0
  3 15  1  0  0  0  0
  3 21  1  0  0  0  0
  4 16  1  0  0  0  0
  4 22  1  0  0  0  0
  5 17  1  0  0  0  0
  5 23  1  0  0  0  0
  6 18  1  0  0  0  0
  6 24  1  0  0  0  0
  7 19  1  0  0  0  0
  7 25  1  0  0  0  0
  8 20  1  0  0  0  0
  8 26  1  0  0  0  0
  9 15  2  0  0  0  0
 10 16  2  0  0  0  0
 11 17  2  0  0  0  0
 12 18  2  0  0  0  0
 13 19  2  0  0  0  0
 14 20  2  0  0  0  0
 15 16  1  0  0  0  0
 17 18  1  0  0  0  0
 19 20  1  0  0  0  0
M  END
> <PUBCHEM_COMPOUND_CID>
71310252

> <PUBCHEM_COMPOUND_CANONICALIZED>
1

> <PUBCHEM_CACTVS_COMPLEXITY>
314

> <PUBCHEM_CACTVS_HBOND_ACCEPTOR>
12

> <PUBCHEM_CACTVS_HBOND_DONOR>
6

> <PUBCHEM_CACTVS_ROTATABLE_BOND>
1

> <PUBCHEM_CACTVS_SUBSKEYS>
AAADcYBgPAAAAAAAAAAAAAABAAAAASJAAAAAAAAAAAAAAAAAAAAACgAACAAAAAAAgAAACAAAAgAIAACQCAIAAAAAAAAAAABAAAABAAAAAAAAAAAAAAABAAAAAAAAAAAAAAAAAAAAAAAAAAAAAAAAAAAAAA==

> <PUBCHEM_IUPAC_OPENEYE_NAME>
oxalic acid;thulium

> <PUBCHEM_IUPAC_CAS_NAME>
oxalic acid;thulium

> <PUBCHEM_IUPAC_NAME_MARKUP>
oxalic acid;thulium

> <PUBCHEM_IUPAC_NAME>
oxalic acid;thulium

> <PUBCHEM_IUPAC_SYSTEMATIC_NAME>
tris(ethanedioic acid);thulium

> <PUBCHEM_IUPAC_TRADITIONAL_NAME>
oxalic acid;thulium

> <PUBCHEM_IUPAC_INCHI>
InChI=1S/3C2H2O4.2Tm/c3*3-1(4)2(5)6;;/h3*(H,3,4)(H,5,6);;

> <PUBCHEM_IUPAC_INCHIKEY>
MIUIFFSRAZCVOZ-UHFFFAOYSA-N

> <PUBCHEM_EXACT_MASS>
607.85436

> <PUBCHEM_MOLECULAR_FORMULA>
C6H6O12Tm2

> <PUBCHEM_MOLECULAR_WEIGHT>
607.97

> <PUBCHEM_SMILES>
C(=O)(C(=O)O)O.C(=O)(C(=O)O)O.C(=O)(C(=O)O)O.[Tm].[Tm]

> <PUBCHEM_CONNECTIVITY_SMILES>
C(=O)(C(=O)O)O.C(=O)(C(=O)O)O.C(=O)(C(=O)O)O.[Tm].[Tm]

> <PUBCHEM_CACTVS_TPSA>
224

> <PUBCHEM_MONOISOTOPIC_WEIGHT>
607.85436

> <PUBCHEM_TOTAL_CHARGE>
0

> <PUBCHEM_HEAVY_ATOM_COUNT>
20

> <PUBCHEM_ATOM_DEF_STEREO_COUNT>
0

> <PUBCHEM_ATOM_UDEF_STEREO_COUNT>
0

> <PUBCHEM_BOND_DEF_STEREO_COUNT>
0

> <PUBCHEM_BOND_UDEF_STEREO_COUNT>
0

> <PUBCHEM_ISOTOPIC_ATOM_COUNT>
0

> <PUBCHEM_COMPONENT_COUNT>
5

> <PUBCHEM_CACTVS_TAUTO_COUNT>
-1

> <PUBCHEM_NONSTANDARDBOND>
1  3  6
1  4  6
1  7  6
2  5  6
2  6  6
2  8  6

> <PUBCHEM_COORDINATE_TYPE>
1
5
255

$$$$
