5222466
  -OEChem-08152606442D

 25 21  0     0  0  0  0  0  0999 V2000
    4.5000   -0.3840    0.0000 Tm  0  0  0  0  0  0  0  0  0  0  0  0
    4.5000    0.6160    0.0000 O   0  0  0  0  0  0  0  0  0  0  0  0
    3.5000   -0.3840    0.0000 O   0  0  0  0  0  0  0  0  0  0  0  0
    5.5000   -0.3840    0.0000 O   0  0  0  0  0  0  0  0  0  0  0  0
    6.2321    0.6160    0.0000 O   0  0  0  0  0  0  0  0  0  0  0  0
    3.5000   -2.1160    0.0000 O   0  0  0  0  0  0  0  0  0  0  0  0
    5.5000   -2.1160    0.0000 O   0  0  0  0  0  0  0  0  0  0  0  0
    5.3660    1.1160    0.0000 C   0  0  0  0  0  0  0  0  0  0  0  0
    3.0000   -1.2500    0.0000 C   0  0  0  0  0  0  0  0  0  0  0  0
    6.0000   -1.2500    0.0000 C   0  0  0  0  0  0  0  0  0  0  0  0
    5.3660    2.1160    0.0000 C   0  0  0  0  0  0  0  0  0  0  0  0
    2.0000   -1.2500    0.0000 C   0  0  0  0  0  0  0  0  0  0  0  0
    7.0000   -1.2500    0.0000 C   0  0  0  0  0  0  0  0  0  0  0  0
    3.9631    0.9260    0.0000 H   0  0  0  0  0  0  0  0  0  0  0  0
    3.1900    0.1530    0.0000 H   0  0  0  0  0  0  0  0  0  0  0  0
    5.8100    0.1530    0.0000 H   0  0  0  0  0  0  0  0  0  0  0  0
    5.9860    2.1160    0.0000 H   0  0  0  0  0  0  0  0  0  0  0  0
    5.3660    2.7360    0.0000 H   0  0  0  0  0  0  0  0  0  0  0  0
    4.7460    2.1160    0.0000 H   0  0  0  0  0  0  0  0  0  0  0  0
    2.0000   -0.6300    0.0000 H   0  0  0  0  0  0  0  0  0  0  0  0
    1.3800   -1.2500    0.0000 H   0  0  0  0  0  0  0  0  0  0  0  0
    2.0000   -1.8700    0.0000 H   0  0  0  0  0  0  0  0  0  0  0  0
    7.0000   -1.8700    0.0000 H   0  0  0  0  0  0  0  0  0  0  0  0
    7.6200   -1.2500    0.0000 H   0  0  0  0  0  0  0  0  0  0  0  0
    7.0000   -0.6300    0.0000 H   0  0  0  0  0  0  0  0  0  0  0  0
  2  8  1  0  0  0  0
  2 14  1  0  0  0  0
  3  9  1  0  0  0  0
  3 15  1  0  0  0  0
  4 10  1  0  0  0  0
  4 16  1  0  0  0  0
  5  8  2  0  0  0  0
  6  9  2  0  0  0  0
  7 10  2  0  0  0  0
  8 11  1  0  0  0  0
  9 12  1  0  0  0  0
 10 13  1  0  0  0  0
 11 17  1  0  0  0  0
 11 18  1  0  0  0  0
 11 19  1  0  0  0  0
 12 20  1  0  0  0  0
 12 21  1  0  0  0  0
 12 22  1  0  0  0  0
 13 23  1  0  0  0  0
 13 24  1  0  0  0  0
 13 25  1  0  0  0  0
M  END
> <PUBCHEM_COMPOUND_CID>
5222466

> <PUBCHEM_COMPOUND_CANONICALIZED>
1

> <PUBCHEM_CACTVS_COMPLEXITY>
127

> <PUBCHEM_CACTVS_HBOND_ACCEPTOR>
6

> <PUBCHEM_CACTVS_HBOND_DONOR>
3

> <PUBCHEM_CACTVS_ROTATABLE_BOND>
0

> <PUBCHEM_CACTVS_SUBSKEYS>
AAADccBgOAAAAAAAAAAAAAABAAAAAAAAAAAAAAAAAAAAAAAAAAAAGgAACAAAAACAgAACCAAAAgAIAACQCAAAAAAAAAAAAAAAAAAAAAAAAAAAAAAAAAAAAAAAAAAAAAAAAAAAAAAAAAAAAAAAAAAAAAAAAA==

> <PUBCHEM_IUPAC_OPENEYE_NAME>
acetic acid;thulium

> <PUBCHEM_IUPAC_CAS_NAME>
acetic acid;thulium

> <PUBCHEM_IUPAC_NAME_MARKUP>
acetic acid;thulium

> <PUBCHEM_IUPAC_NAME>
acetic acid;thulium

> <PUBCHEM_IUPAC_SYSTEMATIC_NAME>
ethanoic acid;thulium

> <PUBCHEM_IUPAC_TRADITIONAL_NAME>
acetic acid;thulium

> <PUBCHEM_IUPAC_INCHI>
InChI=1S/3C2H4O2.Tm/c3*1-2(3)4;/h3*1H3,(H,3,4);

> <PUBCHEM_IUPAC_INCHIKEY>
LLJLOEURHKVHBJ-UHFFFAOYSA-N

> <PUBCHEM_EXACT_MASS>
348.997607

> <PUBCHEM_MOLECULAR_FORMULA>
C6H12O6Tm

> <PUBCHEM_MOLECULAR_WEIGHT>
349.09

> <PUBCHEM_SMILES>
CC(=O)O.CC(=O)O.CC(=O)O.[Tm]

> <PUBCHEM_CONNECTIVITY_SMILES>
CC(=O)O.CC(=O)O.CC(=O)O.[Tm]

> <PUBCHEM_CACTVS_TPSA>
112

> <PUBCHEM_MONOISOTOPIC_WEIGHT>
348.997607

> <PUBCHEM_TOTAL_CHARGE>
0

> <PUBCHEM_HEAVY_ATOM_COUNT>
13

> <PUBCHEM_ATOM_DEF_STEREO_COUNT>
0

> <PUBCHEM_ATOM_UDEF_STEREO_COUNT>
0

> <PUBCHEM_BOND_DEF_STEREO_COUNT>
0

> <PUBCHEM_BOND_UDEF_STEREO_COUNT>
0

> <PUBCHEM_ISOTOPIC_ATOM_COUNT>
0

> <PUBCHEM_COMPONENT_COUNT>
4

> <PUBCHEM_CACTVS_TAUTO_COUNT>
-1

> <PUBCHEM_NONSTANDARDBOND>
1  2  6
1  3  6
1  4  6

> <PUBCHEM_COORDINATE_TYPE>
1
5
255

$$$$
