16747781
  -OEChem-08152604322D

  3  0  0     0  0  0  0  0  0999 V2000
    2.8660   -0.2500    0.0000 Sn  0  0  0  0  0  0  0  0  0  0  0  0
    3.7321    0.2500    0.0000 O   0  6  0  0  0  0  0  0  0  0  0  0
    2.0000    0.2500    0.0000 O   0  6  0  0  0  0  0  0  0  0  0  0
M  CHG  3   1   4   2  -2   3  -2
M  END
> <PUBCHEM_COMPOUND_CID>
16747781

> <PUBCHEM_COMPOUND_CANONICALIZED>
1

> <PUBCHEM_CACTVS_COMPLEXITY>
0

> <PUBCHEM_CACTVS_HBOND_ACCEPTOR>
2

> <PUBCHEM_CACTVS_HBOND_DONOR>
0

> <PUBCHEM_CACTVS_ROTATABLE_BOND>
0

> <PUBCHEM_CACTVS_SUBSKEYS>
AAADcQAAMAAAAAAAAACAAAAAAAAAAAAAAAAAAAAAAAAAAAAAAAAAAAAAAAAAAAAAAAAAAAAAAAAAAAAAAAAAAAAAAAAAAAAAAAAAAAAAAAAAAAAAAAAAAAAAAAAAAAAAAAAAAAAAAAAAAAAAAAAAAAAAAA==

> <PUBCHEM_IUPAC_OPENEYE_NAME>
stannic bis(oxygen(2-))

> <PUBCHEM_IUPAC_CAS_NAME>
bis(oxygen(2-));tin(4+)

> <PUBCHEM_IUPAC_NAME_MARKUP>
bis(oxygen(2-));tin(4+)

> <PUBCHEM_IUPAC_NAME>
bis(oxygen(2-));tin(4+)

> <PUBCHEM_IUPAC_SYSTEMATIC_NAME>
bis(oxygen(2-));tin(4+)

> <PUBCHEM_IUPAC_TRADITIONAL_NAME>
stannic bis(oxygen(2-))

> <PUBCHEM_IUPAC_INCHI>
InChI=1S/2O.Sn/q2*-2;+4

> <PUBCHEM_IUPAC_INCHIKEY>
DDSPUNTXKUFWTM-UHFFFAOYSA-N

> <PUBCHEM_EXACT_MASS>
151.892032

> <PUBCHEM_MOLECULAR_FORMULA>
O2Sn

> <PUBCHEM_MOLECULAR_WEIGHT>
150.71

> <PUBCHEM_SMILES>
[O-2].[O-2].[Sn+4]

> <PUBCHEM_CONNECTIVITY_SMILES>
[O-2].[O-2].[Sn+4]

> <PUBCHEM_CACTVS_TPSA>
2

> <PUBCHEM_MONOISOTOPIC_WEIGHT>
151.892032

> <PUBCHEM_TOTAL_CHARGE>
0

> <PUBCHEM_HEAVY_ATOM_COUNT>
3

> <PUBCHEM_ATOM_DEF_STEREO_COUNT>
0

> <PUBCHEM_ATOM_UDEF_STEREO_COUNT>
0

> <PUBCHEM_BOND_DEF_STEREO_COUNT>
0

> <PUBCHEM_BOND_UDEF_STEREO_COUNT>
0

> <PUBCHEM_ISOTOPIC_ATOM_COUNT>
0

> <PUBCHEM_COMPONENT_COUNT>
3

> <PUBCHEM_CACTVS_TAUTO_COUNT>
-1

> <PUBCHEM_COORDINATE_TYPE>
1
5
255

$$$$
