88989
  -OEChem-08152605042D

  2  1  0     0  0  0  0  0  0999 V2000
    2.0000    0.0000    0.0000 Sn  0  0  0  0  0  0  0  0  0  0  0  0
    3.0000    0.0000    0.0000 O   0  0  0  0  0  0  0  0  0  0  0  0
  1  2  2  0  0  0  0
M  END
> <PUBCHEM_COMPOUND_CID>
88989

> <PUBCHEM_COMPOUND_CANONICALIZED>
1

> <PUBCHEM_CACTVS_COMPLEXITY>
2

> <PUBCHEM_CACTVS_HBOND_ACCEPTOR>
1

> <PUBCHEM_CACTVS_HBOND_DONOR>
0

> <PUBCHEM_CACTVS_ROTATABLE_BOND>
0

> <PUBCHEM_CACTVS_SUBSKEYS>
AAADcQAAIAAAAAAAAACAAAAAAAAAAAAAAAAAAAAAAAAAAAAAAAAAAAAAAAAAAAAAAAAAAAAAAAAAAAAAAAAAAAAAAAAAAAAAAAAAAAAAAAAAAAAAAAAAAAAAAAAAAAAAAAAAAAAAAAAAAAAAAAAAAAAAAA==

> <PUBCHEM_IUPAC_OPENEYE_NAME>
oxotin

> <PUBCHEM_IUPAC_CAS_NAME>
oxotin

> <PUBCHEM_IUPAC_NAME_MARKUP>
oxotin

> <PUBCHEM_IUPAC_NAME>
oxotin

> <PUBCHEM_IUPAC_SYSTEMATIC_NAME>
oxidanylidenetin

> <PUBCHEM_IUPAC_TRADITIONAL_NAME>
ketotin

> <PUBCHEM_IUPAC_INCHI>
InChI=1S/O.Sn

> <PUBCHEM_IUPAC_INCHIKEY>
QHGNHLZPVBIIPX-UHFFFAOYSA-N

> <PUBCHEM_EXACT_MASS>
135.897117

> <PUBCHEM_MOLECULAR_FORMULA>
OSn

> <PUBCHEM_MOLECULAR_WEIGHT>
134.71

> <PUBCHEM_SMILES>
O=[Sn]

> <PUBCHEM_CONNECTIVITY_SMILES>
O=[Sn]

> <PUBCHEM_CACTVS_TPSA>
17.1

> <PUBCHEM_MONOISOTOPIC_WEIGHT>
135.897117

> <PUBCHEM_TOTAL_CHARGE>
0

> <PUBCHEM_HEAVY_ATOM_COUNT>
2

> <PUBCHEM_ATOM_DEF_STEREO_COUNT>
0

> <PUBCHEM_ATOM_UDEF_STEREO_COUNT>
0

> <PUBCHEM_BOND_DEF_STEREO_COUNT>
0

> <PUBCHEM_BOND_UDEF_STEREO_COUNT>
0

> <PUBCHEM_ISOTOPIC_ATOM_COUNT>
0

> <PUBCHEM_COMPONENT_COUNT>
1

> <PUBCHEM_CACTVS_TAUTO_COUNT>
-1

> <PUBCHEM_COORDINATE_TYPE>
1
5
255

$$$$
