426379
  -OEChem-08152607222D

  2  1  0     0  0  0  0  0  0999 V2000
    3.0000    0.0000    0.0000 Sn  0  0  0  0  0  0  0  0  0  0  0  0
    2.0000    0.0000    0.0000 S   0  0  0  0  0  0  0  0  0  0  0  0
  1  2  2  0  0  0  0
M  END
> <PUBCHEM_COMPOUND_CID>
426379

> <PUBCHEM_COMPOUND_CANONICALIZED>
1

> <PUBCHEM_CACTVS_COMPLEXITY>
2

> <PUBCHEM_CACTVS_HBOND_ACCEPTOR>
1

> <PUBCHEM_CACTVS_HBOND_DONOR>
0

> <PUBCHEM_CACTVS_ROTATABLE_BOND>
0

> <PUBCHEM_CACTVS_SUBSKEYS>
AAADcQAAAABAAAAAAACAAAAAAAAAAAAAAAAAAAAAAAAAAAAAAAAAAAAAAAAAAAAAAAAAAAAAAAAAAAAAAAAAAAAAAAAAAAAAAAAAAAAAAAAAAAAAAAAAAAAAAAAAAAAAAAAAAAAAAAAAAAAAAAAAAAAAAA==

> <PUBCHEM_IUPAC_OPENEYE_NAME>
thioxotin

> <PUBCHEM_IUPAC_CAS_NAME>
sulfanylidenetin

> <PUBCHEM_IUPAC_NAME_MARKUP>
sulfanylidenetin

> <PUBCHEM_IUPAC_NAME>
sulfanylidenetin

> <PUBCHEM_IUPAC_SYSTEMATIC_NAME>
sulfanylidenetin

> <PUBCHEM_IUPAC_TRADITIONAL_NAME>
thioxotin

> <PUBCHEM_IUPAC_INCHI>
InChI=1S/S.Sn

> <PUBCHEM_IUPAC_INCHIKEY>
AFNRRBXCCXDRPS-UHFFFAOYSA-N

> <PUBCHEM_EXACT_MASS>
151.874274

> <PUBCHEM_MOLECULAR_FORMULA>
SSn

> <PUBCHEM_MOLECULAR_WEIGHT>
150.78

> <PUBCHEM_SMILES>
S=[Sn]

> <PUBCHEM_CONNECTIVITY_SMILES>
S=[Sn]

> <PUBCHEM_CACTVS_TPSA>
32.1

> <PUBCHEM_MONOISOTOPIC_WEIGHT>
151.874274

> <PUBCHEM_TOTAL_CHARGE>
0

> <PUBCHEM_HEAVY_ATOM_COUNT>
2

> <PUBCHEM_ATOM_DEF_STEREO_COUNT>
0

> <PUBCHEM_ATOM_UDEF_STEREO_COUNT>
0

> <PUBCHEM_BOND_DEF_STEREO_COUNT>
0

> <PUBCHEM_BOND_UDEF_STEREO_COUNT>
0

> <PUBCHEM_ISOTOPIC_ATOM_COUNT>
0

> <PUBCHEM_COMPONENT_COUNT>
1

> <PUBCHEM_CACTVS_TAUTO_COUNT>
-1

> <PUBCHEM_COORDINATE_TYPE>
1
5
255

$$$$
