9903917
  -OEChem-08152605002D

 45 40  0     0  0  0  0  0  0999 V2000
    5.4641    0.0000    0.0000 Ti  0  0  0  0  0  0  0  0  0  0  0  0
    6.3301    0.5000    0.0000 O   0  5  0  0  0  0  0  0  0  0  0  0
    4.5981   -0.5000    0.0000 O   0  5  0  0  0  0  0  0  0  0  0  0
    4.9641    0.8660    0.0000 O   0  5  0  0  0  0  0  0  0  0  0  0
    5.9641   -0.8660    0.0000 O   0  5  0  0  0  0  0  0  0  0  0  0
    8.0622    0.5000    0.0000 C   0  0  0  0  0  0  0  0  0  0  0  0
    2.8660   -0.5000    0.0000 C   0  0  0  0  0  0  0  0  0  0  0  0
    4.9641    2.5981    0.0000 C   0  0  0  0  0  0  0  0  0  0  0  0
    5.9641   -2.5981    0.0000 C   0  0  0  0  0  0  0  0  0  0  0  0
    7.1962    0.0000    0.0000 C   0  0  0  0  0  0  0  0  0  0  0  0
    3.7321   -0.0000    0.0000 C   0  0  0  0  0  0  0  0  0  0  0  0
    5.4641    1.7321    0.0000 C   0  0  0  0  0  0  0  0  0  0  0  0
    5.4641   -1.7321    0.0000 C   0  0  0  0  0  0  0  0  0  0  0  0
    8.9282   -0.0000    0.0000 C   0  0  0  0  0  0  0  0  0  0  0  0
    2.0000   -0.0000    0.0000 C   0  0  0  0  0  0  0  0  0  0  0  0
    5.4641    3.4641    0.0000 C   0  0  0  0  0  0  0  0  0  0  0  0
    5.4641   -3.4641    0.0000 C   0  0  0  0  0  0  0  0  0  0  0  0
    8.4607    0.9749    0.0000 H   0  0  0  0  0  0  0  0  0  0  0  0
    7.6637    0.9749    0.0000 H   0  0  0  0  0  0  0  0  0  0  0  0
    2.4675   -0.9749    0.0000 H   0  0  0  0  0  0  0  0  0  0  0  0
    3.2646   -0.9749    0.0000 H   0  0  0  0  0  0  0  0  0  0  0  0
    4.4892    2.9966    0.0000 H   0  0  0  0  0  0  0  0  0  0  0  0
    4.4892    2.1996    0.0000 H   0  0  0  0  0  0  0  0  0  0  0  0
    6.4391   -2.9966    0.0000 H   0  0  0  0  0  0  0  0  0  0  0  0
    6.4391   -2.1996    0.0000 H   0  0  0  0  0  0  0  0  0  0  0  0
    6.7976   -0.4749    0.0000 H   0  0  0  0  0  0  0  0  0  0  0  0
    7.5947   -0.4749    0.0000 H   0  0  0  0  0  0  0  0  0  0  0  0
    4.1306    0.4749    0.0000 H   0  0  0  0  0  0  0  0  0  0  0  0
    3.3335    0.4749    0.0000 H   0  0  0  0  0  0  0  0  0  0  0  0
    5.9391    1.3335    0.0000 H   0  0  0  0  0  0  0  0  0  0  0  0
    5.9391    2.1306    0.0000 H   0  0  0  0  0  0  0  0  0  0  0  0
    4.9892   -1.3335    0.0000 H   0  0  0  0  0  0  0  0  0  0  0  0
    4.9892   -2.1306    0.0000 H   0  0  0  0  0  0  0  0  0  0  0  0
    8.6182   -0.5369    0.0000 H   0  0  0  0  0  0  0  0  0  0  0  0
    9.4651   -0.3100    0.0000 H   0  0  0  0  0  0  0  0  0  0  0  0
    9.2382    0.5369    0.0000 H   0  0  0  0  0  0  0  0  0  0  0  0
    2.3100    0.5369    0.0000 H   0  0  0  0  0  0  0  0  0  0  0  0
    1.4631    0.3100    0.0000 H   0  0  0  0  0  0  0  0  0  0  0  0
    1.6900   -0.5369    0.0000 H   0  0  0  0  0  0  0  0  0  0  0  0
    6.0010    3.1541    0.0000 H   0  0  0  0  0  0  0  0  0  0  0  0
    5.7741    4.0010    0.0000 H   0  0  0  0  0  0  0  0  0  0  0  0
    4.9272    3.7741    0.0000 H   0  0  0  0  0  0  0  0  0  0  0  0
    4.9272   -3.1541    0.0000 H   0  0  0  0  0  0  0  0  0  0  0  0
    5.1541   -4.0010    0.0000 H   0  0  0  0  0  0  0  0  0  0  0  0
    6.0010   -3.7741    0.0000 H   0  0  0  0  0  0  0  0  0  0  0  0
  2 10  1  0  0  0  0
  3 11  1  0  0  0  0
  4 12  1  0  0  0  0
  5 13  1  0  0  0  0
  6 10  1  0  0  0  0
  6 14  1  0  0  0  0
  6 18  1  0  0  0  0
  6 19  1  0  0  0  0
  7 11  1  0  0  0  0
  7 15  1  0  0  0  0
  7 20  1  0  0  0  0
  7 21  1  0  0  0  0
  8 12  1  0  0  0  0
  8 16  1  0  0  0  0
  8 22  1  0  0  0  0
  8 23  1  0  0  0  0
  9 13  1  0  0  0  0
  9 17  1  0  0  0  0
  9 24  1  0  0  0  0
  9 25  1  0  0  0  0
 10 26  1  0  0  0  0
 10 27  1  0  0  0  0
 11 28  1  0  0  0  0
 11 29  1  0  0  0  0
 12 30  1  0  0  0  0
 12 31  1  0  0  0  0
 13 32  1  0  0  0  0
 13 33  1  0  0  0  0
 14 34  1  0  0  0  0
 14 35  1  0  0  0  0
 14 36  1  0  0  0  0
 15 37  1  0  0  0  0
 15 38  1  0  0  0  0
 15 39  1  0  0  0  0
 16 40  1  0  0  0  0
 16 41  1  0  0  0  0
 16 42  1  0  0  0  0
 17 43  1  0  0  0  0
 17 44  1  0  0  0  0
 17 45  1  0  0  0  0
M  CHG  5   1   4   2  -1   3  -1   4  -1   5  -1
M  END
> <PUBCHEM_COMPOUND_CID>
9903917

> <PUBCHEM_COMPOUND_CANONICALIZED>
1

> <PUBCHEM_CACTVS_COMPLEXITY>
7.2

> <PUBCHEM_CACTVS_HBOND_ACCEPTOR>
4

> <PUBCHEM_CACTVS_HBOND_DONOR>
0

> <PUBCHEM_CACTVS_ROTATABLE_BOND>
4

> <PUBCHEM_CACTVS_SUBSKEYS>
AAADceBwOAAAAAIAAAAAAAAAAAAAAAAAAAAAAAAAAAAAAAAAAAAAGgAAAAAACACggAICAAAAAAAAAAAAAAAAAAAAAAAAAAAAAAAAAAAAAAAAAAAAAAAAAAAAAAAAAAAAAAAAAAAAAAAAAAAAAAAAAAAAAA==

> <PUBCHEM_IUPAC_OPENEYE_NAME>
tetrakis(propan-1-olate);titanium(4+)

> <PUBCHEM_IUPAC_CAS_NAME>
tetrakis(1-propanolate);titanium(4+)

> <PUBCHEM_IUPAC_NAME_MARKUP>
tetrakis(propan-1-olate);titanium(4+)

> <PUBCHEM_IUPAC_NAME>
tetrakis(propan-1-olate);titanium(4+)

> <PUBCHEM_IUPAC_SYSTEMATIC_NAME>
tetrakis(propan-1-olate);titanium(4+)

> <PUBCHEM_IUPAC_TRADITIONAL_NAME>
tetrakis(propan-1-olate);titanium(4+)

> <PUBCHEM_IUPAC_INCHI>
InChI=1S/4C3H7O.Ti/c4*1-2-3-4;/h4*2-3H2,1H3;/q4*-1;+4

> <PUBCHEM_IUPAC_INCHIKEY>
HKJYVRJHDIPMQB-UHFFFAOYSA-N

> <PUBCHEM_EXACT_MASS>
284.1467000

> <PUBCHEM_MOLECULAR_FORMULA>
C12H28O4Ti

> <PUBCHEM_MOLECULAR_WEIGHT>
284.22

> <PUBCHEM_SMILES>
CCC[O-].CCC[O-].CCC[O-].CCC[O-].[Ti+4]

> <PUBCHEM_CONNECTIVITY_SMILES>
CCC[O-].CCC[O-].CCC[O-].CCC[O-].[Ti+4]

> <PUBCHEM_CACTVS_TPSA>
92.2

> <PUBCHEM_MONOISOTOPIC_WEIGHT>
284.1467000

> <PUBCHEM_TOTAL_CHARGE>
0

> <PUBCHEM_HEAVY_ATOM_COUNT>
17

> <PUBCHEM_ATOM_DEF_STEREO_COUNT>
0

> <PUBCHEM_ATOM_UDEF_STEREO_COUNT>
0

> <PUBCHEM_BOND_DEF_STEREO_COUNT>
0

> <PUBCHEM_BOND_UDEF_STEREO_COUNT>
0

> <PUBCHEM_ISOTOPIC_ATOM_COUNT>
0

> <PUBCHEM_COMPONENT_COUNT>
5

> <PUBCHEM_CACTVS_TAUTO_COUNT>
-1

> <PUBCHEM_COORDINATE_TYPE>
1
5
255

$$$$
