521701
  -OEChem-08152605362D

 61 56  0     0  0  0  0  0  0999 V2000
    6.0532    0.0000    0.0000 Ti  0  0  0  0  0  0  0  0  0  0  0  0
    6.7603    0.7071    0.0000 O   0  0  0  0  0  0  0  0  0  0  0  0
    5.3461   -0.7071    0.0000 O   0  0  0  0  0  0  0  0  0  0  0  0
    5.3461    0.7071    0.0000 O   0  0  0  0  0  0  0  0  0  0  0  0
    6.7603   -0.7071    0.0000 O   0  0  0  0  0  0  0  0  0  0  0  0
    7.7262    0.4483    0.0000 C   0  0  0  0  0  0  0  0  0  0  0  0
    4.3801   -0.4483    0.0000 C   0  0  0  0  0  0  0  0  0  0  0  0
    5.6049    1.6730    0.0000 C   0  0  0  0  0  0  0  0  0  0  0  0
    6.5015   -1.6730    0.0000 C   0  0  0  0  0  0  0  0  0  0  0  0
    8.4333    1.1554    0.0000 C   0  0  0  0  0  0  0  0  0  0  0  0
    3.6730   -1.1554    0.0000 C   0  0  0  0  0  0  0  0  0  0  0  0
    4.8978    2.3801    0.0000 C   0  0  0  0  0  0  0  0  0  0  0  0
    7.2086   -2.3801    0.0000 C   0  0  0  0  0  0  0  0  0  0  0  0
    9.3992    0.8966    0.0000 C   0  0  0  0  0  0  0  0  0  0  0  0
    2.7071   -0.8966    0.0000 C   0  0  0  0  0  0  0  0  0  0  0  0
    5.1566    3.3461    0.0000 C   0  0  0  0  0  0  0  0  0  0  0  0
    6.9498   -3.3461    0.0000 C   0  0  0  0  0  0  0  0  0  0  0  0
   10.1063    1.6037    0.0000 C   0  0  0  0  0  0  0  0  0  0  0  0
    2.0000   -1.6037    0.0000 C   0  0  0  0  0  0  0  0  0  0  0  0
    4.4495    4.0532    0.0000 C   0  0  0  0  0  0  0  0  0  0  0  0
    7.6569   -4.0532    0.0000 C   0  0  0  0  0  0  0  0  0  0  0  0
    6.5998    1.3060    0.0000 H   0  0  0  0  0  0  0  0  0  0  0  0
    5.5065   -1.3060    0.0000 H   0  0  0  0  0  0  0  0  0  0  0  0
    4.7472    0.5466    0.0000 H   0  0  0  0  0  0  0  0  0  0  0  0
    7.3592   -0.5466    0.0000 H   0  0  0  0  0  0  0  0  0  0  0  0
    7.4642   -0.1136    0.0000 H   0  0  0  0  0  0  0  0  0  0  0  0
    8.2341    0.0927    0.0000 H   0  0  0  0  0  0  0  0  0  0  0  0
    4.6422    0.1136    0.0000 H   0  0  0  0  0  0  0  0  0  0  0  0
    3.8723   -0.0927    0.0000 H   0  0  0  0  0  0  0  0  0  0  0  0
    6.1668    1.4110    0.0000 H   0  0  0  0  0  0  0  0  0  0  0  0
    5.9605    2.1809    0.0000 H   0  0  0  0  0  0  0  0  0  0  0  0
    5.9396   -1.4110    0.0000 H   0  0  0  0  0  0  0  0  0  0  0  0
    6.1458   -2.1809    0.0000 H   0  0  0  0  0  0  0  0  0  0  0  0
    8.6953    1.7173    0.0000 H   0  0  0  0  0  0  0  0  0  0  0  0
    7.9254    1.5110    0.0000 H   0  0  0  0  0  0  0  0  0  0  0  0
    3.4110   -1.7173    0.0000 H   0  0  0  0  0  0  0  0  0  0  0  0
    4.1809   -1.5110    0.0000 H   0  0  0  0  0  0  0  0  0  0  0  0
    4.3359    2.6422    0.0000 H   0  0  0  0  0  0  0  0  0  0  0  0
    4.5422    1.8723    0.0000 H   0  0  0  0  0  0  0  0  0  0  0  0
    7.7705   -2.6422    0.0000 H   0  0  0  0  0  0  0  0  0  0  0  0
    7.5642   -1.8723    0.0000 H   0  0  0  0  0  0  0  0  0  0  0  0
    9.1372    0.3347    0.0000 H   0  0  0  0  0  0  0  0  0  0  0  0
    9.9071    0.5410    0.0000 H   0  0  0  0  0  0  0  0  0  0  0  0
    2.9691   -0.3347    0.0000 H   0  0  0  0  0  0  0  0  0  0  0  0
    2.1992   -0.5410    0.0000 H   0  0  0  0  0  0  0  0  0  0  0  0
    5.7185    3.0840    0.0000 H   0  0  0  0  0  0  0  0  0  0  0  0
    5.5122    3.8539    0.0000 H   0  0  0  0  0  0  0  0  0  0  0  0
    6.3878   -3.0840    0.0000 H   0  0  0  0  0  0  0  0  0  0  0  0
    6.5941   -3.8539    0.0000 H   0  0  0  0  0  0  0  0  0  0  0  0
   10.5448    1.1653    0.0000 H   0  0  0  0  0  0  0  0  0  0  0  0
   10.5448    2.0421    0.0000 H   0  0  0  0  0  0  0  0  0  0  0  0
    9.6679    2.0421    0.0000 H   0  0  0  0  0  0  0  0  0  0  0  0
    1.5616   -1.1653    0.0000 H   0  0  0  0  0  0  0  0  0  0  0  0
    1.5616   -2.0421    0.0000 H   0  0  0  0  0  0  0  0  0  0  0  0
    2.4384   -2.0421    0.0000 H   0  0  0  0  0  0  0  0  0  0  0  0
    4.8879    4.4916    0.0000 H   0  0  0  0  0  0  0  0  0  0  0  0
    4.0111    4.4916    0.0000 H   0  0  0  0  0  0  0  0  0  0  0  0
    4.0111    3.6148    0.0000 H   0  0  0  0  0  0  0  0  0  0  0  0
    7.2185   -4.4916    0.0000 H   0  0  0  0  0  0  0  0  0  0  0  0
    8.0953   -4.4916    0.0000 H   0  0  0  0  0  0  0  0  0  0  0  0
    8.0953   -3.6148    0.0000 H   0  0  0  0  0  0  0  0  0  0  0  0
  2  6  1  0  0  0  0
  2 22  1  0  0  0  0
  3  7  1  0  0  0  0
  3 23  1  0  0  0  0
  4  8  1  0  0  0  0
  4 24  1  0  0  0  0
  5  9  1  0  0  0  0
  5 25  1  0  0  0  0
  6 10  1  0  0  0  0
  6 26  1  0  0  0  0
  6 27  1  0  0  0  0
  7 11  1  0  0  0  0
  7 28  1  0  0  0  0
  7 29  1  0  0  0  0
  8 12  1  0  0  0  0
  8 30  1  0  0  0  0
  8 31  1  0  0  0  0
  9 13  1  0  0  0  0
  9 32  1  0  0  0  0
  9 33  1  0  0  0  0
 10 14  1  0  0  0  0
 10 34  1  0  0  0  0
 10 35  1  0  0  0  0
 11 15  1  0  0  0  0
 11 36  1  0  0  0  0
 11 37  1  0  0  0  0
 12 16  1  0  0  0  0
 12 38  1  0  0  0  0
 12 39  1  0  0  0  0
 13 17  1  0  0  0  0
 13 40  1  0  0  0  0
 13 41  1  0  0  0  0
 14 18  1  0  0  0  0
 14 42  1  0  0  0  0
 14 43  1  0  0  0  0
 15 19  1  0  0  0  0
 15 44  1  0  0  0  0
 15 45  1  0  0  0  0
 16 20  1  0  0  0  0
 16 46  1  0  0  0  0
 16 47  1  0  0  0  0
 17 21  1  0  0  0  0
 17 48  1  0  0  0  0
 17 49  1  0  0  0  0
 18 50  1  0  0  0  0
 18 51  1  0  0  0  0
 18 52  1  0  0  0  0
 19 53  1  0  0  0  0
 19 54  1  0  0  0  0
 19 55  1  0  0  0  0
 20 56  1  0  0  0  0
 20 57  1  0  0  0  0
 20 58  1  0  0  0  0
 21 59  1  0  0  0  0
 21 60  1  0  0  0  0
 21 61  1  0  0  0  0
M  END
> <PUBCHEM_COMPOUND_CID>
521701

> <PUBCHEM_COMPOUND_CANONICALIZED>
1

> <PUBCHEM_CACTVS_COMPLEXITY>
82.3

> <PUBCHEM_CACTVS_HBOND_ACCEPTOR>
4

> <PUBCHEM_CACTVS_HBOND_DONOR>
4

> <PUBCHEM_CACTVS_ROTATABLE_BOND>
8

> <PUBCHEM_CACTVS_SUBSKEYS>
AAADcfB4OAAAAAIAAAAAAAAAAAAAAAAAAAAAAAAAAAAAAAAAAAAAGgAACAAACACggAICAAAAAgAAAAAAAAAAAAAAAAAAAAAAAAAAEAAAAAAAQAAEAAAAAAAAAAAAAAAAAAAAAAAAAAAAAAAAAAAAAAAAAA==

> <PUBCHEM_IUPAC_OPENEYE_NAME>
tetrakis(butan-1-ol);titanium

> <PUBCHEM_IUPAC_CAS_NAME>
tetrakis(1-butanol);titanium

> <PUBCHEM_IUPAC_NAME_MARKUP>
tetrakis(butan-1-ol);titanium

> <PUBCHEM_IUPAC_NAME>
tetrakis(butan-1-ol);titanium

> <PUBCHEM_IUPAC_SYSTEMATIC_NAME>
tetrakis(butan-1-ol);titanium

> <PUBCHEM_IUPAC_TRADITIONAL_NAME>
tetrakis(butan-1-ol);titanium

> <PUBCHEM_IUPAC_INCHI>
InChI=1S/4C4H10O.Ti/c4*1-2-3-4-5;/h4*5H,2-4H2,1H3;

> <PUBCHEM_IUPAC_INCHIKEY>
FPCJKVGGYOAWIZ-UHFFFAOYSA-N

> <PUBCHEM_EXACT_MASS>
344.2406004

> <PUBCHEM_MOLECULAR_FORMULA>
C16H40O4Ti

> <PUBCHEM_MOLECULAR_WEIGHT>
344.35

> <PUBCHEM_SMILES>
CCCCO.CCCCO.CCCCO.CCCCO.[Ti]

> <PUBCHEM_CONNECTIVITY_SMILES>
CCCCO.CCCCO.CCCCO.CCCCO.[Ti]

> <PUBCHEM_CACTVS_TPSA>
80.9

> <PUBCHEM_MONOISOTOPIC_WEIGHT>
344.2406004

> <PUBCHEM_TOTAL_CHARGE>
0

> <PUBCHEM_HEAVY_ATOM_COUNT>
21

> <PUBCHEM_ATOM_DEF_STEREO_COUNT>
0

> <PUBCHEM_ATOM_UDEF_STEREO_COUNT>
0

> <PUBCHEM_BOND_DEF_STEREO_COUNT>
0

> <PUBCHEM_BOND_UDEF_STEREO_COUNT>
0

> <PUBCHEM_ISOTOPIC_ATOM_COUNT>
0

> <PUBCHEM_COMPONENT_COUNT>
5

> <PUBCHEM_CACTVS_TAUTO_COUNT>
-1

> <PUBCHEM_NONSTANDARDBOND>
1  2  6
1  3  6
1  4  6
1  5  6

> <PUBCHEM_COORDINATE_TYPE>
1
5
255

$$$$
