159808
  -OEChem-08152606592D

  6  4  0     0  0  0  0  0  0999 V2000
    2.0000   -1.0000    0.0000 Ti  0  0  0  0  0  0  0  0  0  0  0  0
    3.0000    0.0000    0.0000 P   0  0  0  0  0  0  0  0  0  0  0  0
    2.0000    0.0000    0.0000 O   0  5  0  0  0  0  0  0  0  0  0  0
    3.0000   -1.0000    0.0000 O   0  5  0  0  0  0  0  0  0  0  0  0
    4.0000   -0.0000    0.0000 O   0  5  0  0  0  0  0  0  0  0  0  0
    3.0000    1.0000    0.0000 O   0  0  0  0  0  0  0  0  0  0  0  0
  2  3  1  0  0  0  0
  2  4  1  0  0  0  0
  2  5  1  0  0  0  0
  2  6  2  0  0  0  0
M  CHG  4   1   4   3  -1   4  -1   5  -1
M  END
> <PUBCHEM_COMPOUND_CID>
159808

> <PUBCHEM_COMPOUND_CANONICALIZED>
1

> <PUBCHEM_CACTVS_COMPLEXITY>
36.8

> <PUBCHEM_CACTVS_HBOND_ACCEPTOR>
4

> <PUBCHEM_CACTVS_HBOND_DONOR>
0

> <PUBCHEM_CACTVS_ROTATABLE_BOND>
0

> <PUBCHEM_CACTVS_SUBSKEYS>
AAADcQAAOAIAAAIAAAAAAAAAAAAAAAAAAAAAAAAAAAAAAAAAAAAAAAAAACAAAAAAAAAAAAAAABAAQAAAAIAAAAAAAAAAAAAAAAAAAAAAAAAAAAAAAAAAAAAAAAAAAAAAAAAAAAAAAAAAAAAAAAAAAAAAAA==

> <PUBCHEM_IUPAC_OPENEYE_NAME>
titanium(4+) phosphate

> <PUBCHEM_IUPAC_CAS_NAME>
titanium(4+) phosphate

> <PUBCHEM_IUPAC_NAME_MARKUP>
titanium(4+) phosphate

> <PUBCHEM_IUPAC_NAME>
titanium(4+) phosphate

> <PUBCHEM_IUPAC_SYSTEMATIC_NAME>
titanium(4+) phosphate

> <PUBCHEM_IUPAC_TRADITIONAL_NAME>
titanium(4+) phosphate

> <PUBCHEM_IUPAC_INCHI>
InChI=1S/H3O4P.Ti/c1-5(2,3)4;/h(H3,1,2,3,4);/q;+4/p-3

> <PUBCHEM_IUPAC_INCHIKEY>
SCZMHJCEJAGXRV-UHFFFAOYSA-K

> <PUBCHEM_EXACT_MASS>
142.9013612

> <PUBCHEM_MOLECULAR_FORMULA>
O4PTi+

> <PUBCHEM_MOLECULAR_WEIGHT>
142.84

> <PUBCHEM_SMILES>
[O-]P(=O)([O-])[O-].[Ti+4]

> <PUBCHEM_CONNECTIVITY_SMILES>
[O-]P(=O)([O-])[O-].[Ti+4]

> <PUBCHEM_CACTVS_TPSA>
86.3

> <PUBCHEM_MONOISOTOPIC_WEIGHT>
142.9013612

> <PUBCHEM_TOTAL_CHARGE>
1

> <PUBCHEM_HEAVY_ATOM_COUNT>
6

> <PUBCHEM_ATOM_DEF_STEREO_COUNT>
0

> <PUBCHEM_ATOM_UDEF_STEREO_COUNT>
0

> <PUBCHEM_BOND_DEF_STEREO_COUNT>
0

> <PUBCHEM_BOND_UDEF_STEREO_COUNT>
0

> <PUBCHEM_ISOTOPIC_ATOM_COUNT>
0

> <PUBCHEM_COMPONENT_COUNT>
2

> <PUBCHEM_CACTVS_TAUTO_COUNT>
-1

> <PUBCHEM_COORDINATE_TYPE>
1
5
255

$$$$
