6451907
  -OEChem-08152607042D

  9  6  0     0  0  0  0  0  0999 V2000
    3.7071    0.3536    0.0000 Ti  0  0  0  0  0  0  0  0  0  0  0  0
    2.7071   -0.6464    0.0000 Si  0  0  0  0  0  0  0  0  0  0  0  0
    5.2071    1.2196    0.0000 Si  0  0  0  0  0  0  0  0  0  0  0  0
    3.7071   -0.6464    0.0000 O   0  5  0  0  0  0  0  0  0  0  0  0
    2.7071    0.3536    0.0000 O   0  5  0  0  0  0  0  0  0  0  0  0
    4.7071    0.3536    0.0000 O   0  5  0  0  0  0  0  0  0  0  0  0
    3.7071    1.3536    0.0000 O   0  5  0  0  0  0  0  0  0  0  0  0
    2.0000   -1.3536    0.0000 O   0  0  0  0  0  0  0  0  0  0  0  0
    6.2071    1.2196    0.0000 O   0  0  0  0  0  0  0  0  0  0  0  0
  2  4  1  0  0  0  0
  2  5  1  0  0  0  0
  2  8  2  0  0  0  0
  3  6  1  0  0  0  0
  3  7  1  0  0  0  0
  3  9  2  0  0  0  0
M  CHG  5   1   4   4  -1   5  -1   6  -1   7  -1
M  END
> <PUBCHEM_COMPOUND_CID>
6451907

> <PUBCHEM_COMPOUND_CANONICALIZED>
1

> <PUBCHEM_CACTVS_COMPLEXITY>
18.8

> <PUBCHEM_CACTVS_HBOND_ACCEPTOR>
6

> <PUBCHEM_CACTVS_HBOND_DONOR>
0

> <PUBCHEM_CACTVS_ROTATABLE_BOND>
0

> <PUBCHEM_CACTVS_SUBSKEYS>
AAADcQAAOAwAAAIAAAAAAAAAAAAAAAAAAAAAAAAAAAAAAAAAAAAAAAAAAEAAAAAAAAAAAAAAAAAAAAAAAAAAAAAAAAAAAAAAAAAAAAAAAAAAAAAAAAAAAAAAAAAAAAAAAAAAAAAAAAAAAAAAAAAAAAAAAA==

> <PUBCHEM_IUPAC_OPENEYE_NAME>
bis(dioxido(oxo)silane);titanium(4+)

> <PUBCHEM_IUPAC_CAS_NAME>
bis(dioxido(oxo)silane);titanium(4+)

> <PUBCHEM_IUPAC_NAME_MARKUP>
bis(dioxido(oxo)silane);titanium(4+)

> <PUBCHEM_IUPAC_NAME>
bis(dioxido(oxo)silane);titanium(4+)

> <PUBCHEM_IUPAC_SYSTEMATIC_NAME>
bis(bis(oxidanidyl)-oxidanylidene-silane);titanium(4+)

> <PUBCHEM_IUPAC_TRADITIONAL_NAME>
bis(keto(dioxido)silane);titanium(4+)

> <PUBCHEM_IUPAC_INCHI>
InChI=1S/2O3Si.Ti/c2*1-4(2)3;/q2*-2;+4

> <PUBCHEM_IUPAC_INCHIKEY>
LMYUVIRTIDGPBO-UHFFFAOYSA-N

> <PUBCHEM_EXACT_MASS>
199.8712815

> <PUBCHEM_MOLECULAR_FORMULA>
O6Si2Ti

> <PUBCHEM_MOLECULAR_WEIGHT>
200.03

> <PUBCHEM_SMILES>
[O-][Si](=O)[O-].[O-][Si](=O)[O-].[Ti+4]

> <PUBCHEM_CONNECTIVITY_SMILES>
[O-][Si](=O)[O-].[O-][Si](=O)[O-].[Ti+4]

> <PUBCHEM_CACTVS_TPSA>
126

> <PUBCHEM_MONOISOTOPIC_WEIGHT>
199.8712815

> <PUBCHEM_TOTAL_CHARGE>
0

> <PUBCHEM_HEAVY_ATOM_COUNT>
9

> <PUBCHEM_ATOM_DEF_STEREO_COUNT>
0

> <PUBCHEM_ATOM_UDEF_STEREO_COUNT>
0

> <PUBCHEM_BOND_DEF_STEREO_COUNT>
0

> <PUBCHEM_BOND_UDEF_STEREO_COUNT>
0

> <PUBCHEM_ISOTOPIC_ATOM_COUNT>
0

> <PUBCHEM_COMPONENT_COUNT>
3

> <PUBCHEM_CACTVS_TAUTO_COUNT>
-1

> <PUBCHEM_COORDINATE_TYPE>
1
5
255

$$$$
