66228
  -OEChem-08152605312D

  3  2  0     0  0  0  0  0  0999 V2000
    2.8660   -0.2500    0.0000 Ti  0  0  0  0  0  0  0  0  0  0  0  0
    3.7321    0.2500    0.0000 Cl  0  0  0  0  0  0  0  0  0  0  0  0
    2.0000    0.2500    0.0000 Cl  0  0  0  0  0  0  0  0  0  0  0  0
  1  2  1  0  0  0  0
  1  3  1  0  0  0  0
M  END
> <PUBCHEM_COMPOUND_CID>
66228

> <PUBCHEM_COMPOUND_CANONICALIZED>
1

> <PUBCHEM_CACTVS_COMPLEXITY>
2.8

> <PUBCHEM_CACTVS_HBOND_ACCEPTOR>
0

> <PUBCHEM_CACTVS_HBOND_DONOR>
0

> <PUBCHEM_CACTVS_ROTATABLE_BOND>
0

> <PUBCHEM_CACTVS_SUBSKEYS>
AAADcQAAAAAGAAIAAAAAAAAAAAAAAAAAAAAAAAAAAAAAAAAAAAAAAAAAAAAAAAAAAAAAAAAAAAAAAAAAAAAAAAAAAAAAAAAAAAAAAAAAAAAAAAAAAAAAAAAAAAAAAAAAAAAAAAAAAAAAAAAAAAAAAAAAAA==

> <PUBCHEM_IUPAC_OPENEYE_NAME>
dichlorotitanium

> <PUBCHEM_IUPAC_CAS_NAME>
dichlorotitanium

> <PUBCHEM_IUPAC_NAME_MARKUP>
dichlorotitanium

> <PUBCHEM_IUPAC_NAME>
dichlorotitanium

> <PUBCHEM_IUPAC_SYSTEMATIC_NAME>
bis(chloranyl)titanium

> <PUBCHEM_IUPAC_TRADITIONAL_NAME>
dichlorotitanium

> <PUBCHEM_IUPAC_INCHI>
InChI=1S/2ClH.Ti/h2*1H;/q;;+2/p-2

> <PUBCHEM_IUPAC_INCHIKEY>
ZWYDDDAMNQQZHD-UHFFFAOYSA-L

> <PUBCHEM_EXACT_MASS>
117.885646

> <PUBCHEM_MOLECULAR_FORMULA>
Cl2Ti

> <PUBCHEM_MOLECULAR_WEIGHT>
118.77

> <PUBCHEM_SMILES>
Cl[Ti]Cl

> <PUBCHEM_CONNECTIVITY_SMILES>
Cl[Ti]Cl

> <PUBCHEM_CACTVS_TPSA>
0

> <PUBCHEM_MONOISOTOPIC_WEIGHT>
117.885646

> <PUBCHEM_TOTAL_CHARGE>
0

> <PUBCHEM_HEAVY_ATOM_COUNT>
3

> <PUBCHEM_ATOM_DEF_STEREO_COUNT>
0

> <PUBCHEM_ATOM_UDEF_STEREO_COUNT>
0

> <PUBCHEM_BOND_DEF_STEREO_COUNT>
0

> <PUBCHEM_BOND_UDEF_STEREO_COUNT>
0

> <PUBCHEM_ISOTOPIC_ATOM_COUNT>
0

> <PUBCHEM_COMPONENT_COUNT>
1

> <PUBCHEM_CACTVS_TAUTO_COUNT>
-1

> <PUBCHEM_COORDINATE_TYPE>
1
5
255

$$$$
