416
  -OEChem-08152602452D

 46 48  0     1  0  0  0  0  0999 V2000
    6.8671   -0.8802    0.0000 O   0  0  0  0  0  0  0  0  0  0  0  0
    5.1350   -0.8802    0.0000 O   0  0  0  0  0  0  0  0  0  0  0  0
    6.8671   -2.8802    0.0000 O   0  0  0  0  0  0  0  0  0  0  0  0
    5.1350   -3.8802    0.0000 O   0  0  0  0  0  0  0  0  0  0  0  0
    3.4030   -2.8802    0.0000 O   0  0  0  0  0  0  0  0  0  0  0  0
    5.1070    0.3986    0.0000 O   0  0  0  0  0  0  0  0  0  0  0  0
    2.5369   -1.3802    0.0000 O   0  0  0  0  0  0  0  0  0  0  0  0
    3.4030    0.1198    0.0000 O   0  0  0  0  0  0  0  0  0  0  0  0
    6.3671    1.6586    0.0000 N   0  0  0  0  0  0  0  0  0  0  0  0
    8.1359    4.1902    0.0000 N   0  0  0  0  0  0  0  0  0  0  0  0
    6.8671    0.1198    0.0000 C   0  0  3  0  0  0  0  0  0  0  0  0
    7.3671    1.6586    0.0000 C   0  0  3  0  0  0  0  0  0  0  0  0
    7.6761    0.7076    0.0000 C   0  0  0  0  0  0  0  0  0  0  0  0
    6.0010   -1.3802    0.0000 C   0  0  3  0  0  0  0  0  0  0  0  0
    6.0010   -2.3802    0.0000 C   0  0  3  0  0  0  0  0  0  0  0  0
    5.1350   -2.8802    0.0000 C   0  0  3  0  0  0  0  0  0  0  0  0
    4.2690   -2.3802    0.0000 C   0  0  3  0  0  0  0  0  0  0  0  0
    4.2690   -1.3802    0.0000 C   0  0  3  0  0  0  0  0  0  0  0  0
    6.0580    0.7076    0.0000 C   0  0  0  0  0  0  0  0  0  0  0  0
    7.9548    2.4676    0.0000 C   0  0  0  0  0  0  0  0  0  0  0  0
    5.7793    2.4676    0.0000 C   0  0  0  0  0  0  0  0  0  0  0  0
    3.4030   -0.8802    0.0000 C   0  0  0  0  0  0  0  0  0  0  0  0
    8.9494    2.3631    0.0000 C   0  0  0  0  0  0  0  0  0  0  0  0
    7.5481    3.3812    0.0000 C   0  0  0  0  0  0  0  0  0  0  0  0
    9.5372    3.1721    0.0000 C   0  0  0  0  0  0  0  0  0  0  0  0
    9.1304    4.0857    0.0000 C   0  0  0  0  0  0  0  0  0  0  0  0
    7.4195   -0.1617    0.0000 H   0  0  0  0  0  0  0  0  0  0  0  0
    7.9794    1.5616    0.0000 H   0  0  0  0  0  0  0  0  0  0  0  0
    7.9861    0.1706    0.0000 H   0  0  0  0  0  0  0  0  0  0  0  0
    8.2425    0.9598    0.0000 H   0  0  0  0  0  0  0  0  0  0  0  0
    6.0010   -0.7602    0.0000 H   0  0  0  0  0  0  0  0  0  0  0  0
    6.0010   -3.0002    0.0000 H   0  0  0  0  0  0  0  0  0  0  0  0
    4.5981   -3.1902    0.0000 H   0  0  0  0  0  0  0  0  0  0  0  0
    3.7320   -2.0702    0.0000 H   0  0  0  0  0  0  0  0  0  0  0  0
    4.2690   -0.7602    0.0000 H   0  0  0  0  0  0  0  0  0  0  0  0
    6.2809    2.8321    0.0000 H   0  0  0  0  0  0  0  0  0  0  0  0
    5.4149    2.9692    0.0000 H   0  0  0  0  0  0  0  0  0  0  0  0
    5.2777    2.1032    0.0000 H   0  0  0  0  0  0  0  0  0  0  0  0
    7.4040   -2.5702    0.0000 H   0  0  0  0  0  0  0  0  0  0  0  0
    5.6720   -4.1902    0.0000 H   0  0  0  0  0  0  0  0  0  0  0  0
    3.4030   -3.5002    0.0000 H   0  0  0  0  0  0  0  0  0  0  0  0
    9.2015    1.7967    0.0000 H   0  0  0  0  0  0  0  0  0  0  0  0
    6.9315    3.4460    0.0000 H   0  0  0  0  0  0  0  0  0  0  0  0
   10.1538    3.1073    0.0000 H   0  0  0  0  0  0  0  0  0  0  0  0
    2.0000   -1.0702    0.0000 H   0  0  0  0  0  0  0  0  0  0  0  0
    9.4948    4.5873    0.0000 H   0  0  0  0  0  0  0  0  0  0  0  0
  1 11  1  0  0  0  0
  1 14  1  0  0  0  0
  2 14  1  0  0  0  0
  2 18  1  0  0  0  0
  3 15  1  0  0  0  0
  3 39  1  0  0  0  0
  4 16  1  0  0  0  0
  4 40  1  0  0  0  0
  5 17  1  0  0  0  0
  5 41  1  0  0  0  0
  6 19  2  0  0  0  0
  7 22  1  0  0  0  0
  7 45  1  0  0  0  0
  8 22  2  0  0  0  0
  9 12  1  0  0  0  0
  9 19  1  0  0  0  0
  9 21  1  0  0  0  0
 10 24  1  0  0  0  0
 10 26  2  0  0  0  0
 11 13  1  0  0  0  0
 11 19  1  0  0  0  0
 11 27  1  0  0  0  0
 12 13  1  0  0  0  0
 12 20  1  0  0  0  0
 12 28  1  0  0  0  0
 13 29  1  0  0  0  0
 13 30  1  0  0  0  0
 14 15  1  0  0  0  0
 14 31  1  0  0  0  0
 15 16  1  0  0  0  0
 15 32  1  0  0  0  0
 16 17  1  0  0  0  0
 16 33  1  0  0  0  0
 17 18  1  0  0  0  0
 17 34  1  0  0  0  0
 18 22  1  0  0  0  0
 18 35  1  0  0  0  0
 20 23  1  0  0  0  0
 20 24  2  0  0  0  0
 21 36  1  0  0  0  0
 21 37  1  0  0  0  0
 21 38  1  0  0  0  0
 23 25  2  0  0  0  0
 23 42  1  0  0  0  0
 24 43  1  0  0  0  0
 25 26  1  0  0  0  0
 25 44  1  0  0  0  0
 26 46  1  0  0  0  0
M  END
> <PUBCHEM_COMPOUND_CID>
416

> <PUBCHEM_COMPOUND_CANONICALIZED>
1

> <PUBCHEM_CACTVS_COMPLEXITY>
546

> <PUBCHEM_CACTVS_HBOND_ACCEPTOR>
9

> <PUBCHEM_CACTVS_HBOND_DONOR>
4

> <PUBCHEM_CACTVS_ROTATABLE_BOND>
4

> <PUBCHEM_CACTVS_SUBSKEYS>
AAADceB7PAAAAAAAAAAAAAAAAAAAAWAAAAAsSAAAAAAAAAABgAAAHgAACAAADDzxmgc+iJMIFgCoAjH3XAKCgCAxAiAI2CF4ZJgbMPbA0ZWnYAhnpgDfyAfe/K7OAAAAAAAAAAAAAAAAAAAAAAAAAAAAAA==

> <PUBCHEM_IUPAC_OPENEYE_NAME>
3,4,5-trihydroxy-6-[1-methyl-2-oxo-5-(3-pyridyl)pyrrolidin-3-yl]oxy-tetrahydropyran-2-carboxylic acid

> <PUBCHEM_IUPAC_CAS_NAME>
3,4,5-trihydroxy-6-[[1-methyl-2-oxo-5-(3-pyridinyl)-3-pyrrolidinyl]oxy]-2-oxanecarboxylic acid

> <PUBCHEM_IUPAC_NAME_MARKUP>
3,4,5-trihydroxy-6-(1-methyl-2-oxo-5-pyridin-3-ylpyrrolidin-3-yl)oxyoxane-2-carboxylic acid

> <PUBCHEM_IUPAC_NAME>
3,4,5-trihydroxy-6-(1-methyl-2-oxo-5-pyridin-3-ylpyrrolidin-3-yl)oxyoxane-2-carboxylic acid

> <PUBCHEM_IUPAC_SYSTEMATIC_NAME>
6-(1-methyl-2-oxidanylidene-5-pyridin-3-yl-pyrrolidin-3-yl)oxy-3,4,5-tris(oxidanyl)oxane-2-carboxylic acid

> <PUBCHEM_IUPAC_TRADITIONAL_NAME>
3,4,5-trihydroxy-6-[2-keto-1-methyl-5-(3-pyridyl)pyrrolidin-3-yl]oxy-tetrahydropyran-2-carboxylic acid

> <PUBCHEM_IUPAC_INCHI>
InChI=1S/C16H20N2O8/c1-18-8(7-3-2-4-17-6-7)5-9(14(18)22)25-16-12(21)10(19)11(20)13(26-16)15(23)24/h2-4,6,8-13,16,19-21H,5H2,1H3,(H,23,24)

> <PUBCHEM_IUPAC_INCHIKEY>
WALNNKZUGHYSCT-UHFFFAOYSA-N

> <PUBCHEM_XLOGP3_AA>
-1.7

> <PUBCHEM_EXACT_MASS>
368.12196560

> <PUBCHEM_MOLECULAR_FORMULA>
C16H20N2O8

> <PUBCHEM_MOLECULAR_WEIGHT>
368.34

> <PUBCHEM_SMILES>
CN1C(CC(C1=O)OC2C(C(C(C(O2)C(=O)O)O)O)O)C3=CN=CC=C3

> <PUBCHEM_CONNECTIVITY_SMILES>
CN1C(CC(C1=O)OC2C(C(C(C(O2)C(=O)O)O)O)O)C3=CN=CC=C3

> <PUBCHEM_CACTVS_TPSA>
150

> <PUBCHEM_MONOISOTOPIC_WEIGHT>
368.12196560

> <PUBCHEM_TOTAL_CHARGE>
0

> <PUBCHEM_HEAVY_ATOM_COUNT>
26

> <PUBCHEM_ATOM_DEF_STEREO_COUNT>
0

> <PUBCHEM_ATOM_UDEF_STEREO_COUNT>
7

> <PUBCHEM_BOND_DEF_STEREO_COUNT>
0

> <PUBCHEM_BOND_UDEF_STEREO_COUNT>
0

> <PUBCHEM_ISOTOPIC_ATOM_COUNT>
0

> <PUBCHEM_COMPONENT_COUNT>
1

> <PUBCHEM_CACTVS_TAUTO_COUNT>
-1

> <PUBCHEM_COORDINATE_TYPE>
1
5
255

> <PUBCHEM_BONDANNOTATIONS>
11  1  3
14  1  3
10  24  8
10  26  8
12  20  3
18  22  3
20  23  8
20  24  8
23  25  8
25  26  8
15  3  3
16  4  3
17  5  3

$$$$
