16211509
  -OEChem-08152607112D

 22 18  0     0  0  0  0  0  0999 V2000
    0.8660    1.0000    0.0000 Rh  0  7  0  0  0  0  0  0  0  0  0  0
    1.7321    1.5000    0.0000 Cl  0  0  0  0  0  0  0  0  0  0  0  0
    0.0000    0.5000    0.0000 Cl  0  0  0  0  0  0  0  0  0  0  0  0
    0.0000    1.5000    0.0000 Cl  0  0  0  0  0  0  0  0  0  0  0  0
    0.8660    0.0000    0.0000 Cl  0  0  0  0  0  0  0  0  0  0  0  0
    0.8660    2.0000    0.0000 Cl  0  0  0  0  0  0  0  0  0  0  0  0
    1.7321    0.5000    0.0000 Cl  0  0  0  0  0  0  0  0  0  0  0  0
    4.2690    1.0000    0.0000 N   0  3  0  0  0  0  0  0  0  0  0  0
    4.2690    4.0739    0.0000 N   0  3  0  0  0  0  0  0  0  0  0  0
    0.8660    4.5369    0.0000 N   0  3  0  0  0  0  0  0  0  0  0  0
    4.8059    1.3100    0.0000 H   0  0  0  0  0  0  0  0  0  0  0  0
    3.7321    0.6900    0.0000 H   0  0  0  0  0  0  0  0  0  0  0  0
    3.9590    1.5369    0.0000 H   0  0  0  0  0  0  0  0  0  0  0  0
    4.5790    0.4631    0.0000 H   0  0  0  0  0  0  0  0  0  0  0  0
    4.8059    4.3839    0.0000 H   0  0  0  0  0  0  0  0  0  0  0  0
    3.7321    3.7639    0.0000 H   0  0  0  0  0  0  0  0  0  0  0  0
    3.9590    4.6108    0.0000 H   0  0  0  0  0  0  0  0  0  0  0  0
    4.5790    3.5369    0.0000 H   0  0  0  0  0  0  0  0  0  0  0  0
    1.4030    4.8469    0.0000 H   0  0  0  0  0  0  0  0  0  0  0  0
    0.3291    4.2269    0.0000 H   0  0  0  0  0  0  0  0  0  0  0  0
    0.5560    5.0739    0.0000 H   0  0  0  0  0  0  0  0  0  0  0  0
    1.1760    4.0000    0.0000 H   0  0  0  0  0  0  0  0  0  0  0  0
  1  2  1  0  0  0  0
  1  3  1  0  0  0  0
  1  4  1  0  0  0  0
  1  5  1  0  0  0  0
  1  6  1  0  0  0  0
  1  7  1  0  0  0  0
  8 11  1  0  0  0  0
  8 12  1  0  0  0  0
  8 13  1  0  0  0  0
  8 14  1  0  0  0  0
  9 15  1  0  0  0  0
  9 16  1  0  0  0  0
  9 17  1  0  0  0  0
  9 18  1  0  0  0  0
 10 19  1  0  0  0  0
 10 20  1  0  0  0  0
 10 21  1  0  0  0  0
 10 22  1  0  0  0  0
M  CHG  4   1  -3   8   1   9   1  10   1
M  END
> <PUBCHEM_COMPOUND_CID>
16211509

> <PUBCHEM_COMPOUND_CANONICALIZED>
1

> <PUBCHEM_CACTVS_COMPLEXITY>
62.7

> <PUBCHEM_CACTVS_HBOND_ACCEPTOR>
1

> <PUBCHEM_CACTVS_HBOND_DONOR>
3

> <PUBCHEM_CACTVS_ROTATABLE_BOND>
0

> <PUBCHEM_CACTVS_SUBSKEYS>
AAADccADAAAHAAAAABAAAAAAAAAAAAAAAAAAAAAAAAAAAAAAAAAAAAAQAAAAAAAAAAAAAAAAAAAAAAAAAAAAAAAAAAAAAAAAAAAAAAAAAAAAAAAAAAAAAAAAAAAAAAAAAAAAAAAAAAAAAAAAAAAAAAAAAA==

> <PUBCHEM_IUPAC_OPENEYE_NAME>
triammonium;hexachlororhodium(3-)

> <PUBCHEM_IUPAC_CAS_NAME>
triammonium;hexachlororhodium(3-)

> <PUBCHEM_IUPAC_NAME_MARKUP>
triazanium;hexachlororhodium(3-)

> <PUBCHEM_IUPAC_NAME>
triazanium;hexachlororhodium(3-)

> <PUBCHEM_IUPAC_SYSTEMATIC_NAME>
triazanium;hexakis(chloranyl)rhodium(3-)

> <PUBCHEM_IUPAC_TRADITIONAL_NAME>
triammonium;hexachlororhodium(3-)

> <PUBCHEM_IUPAC_INCHI>
InChI=1S/6ClH.3H3N.Rh/h6*1H;3*1H3;/q;;;;;;;;;+3/p-3

> <PUBCHEM_IUPAC_INCHIKEY>
OJNYBYILSUWBHM-UHFFFAOYSA-K

> <PUBCHEM_EXACT_MASS>
368.81878

> <PUBCHEM_MOLECULAR_FORMULA>
Cl6H12N3Rh

> <PUBCHEM_MOLECULAR_WEIGHT>
369.7

> <PUBCHEM_SMILES>
[NH4+].[NH4+].[NH4+].Cl[Rh-3](Cl)(Cl)(Cl)(Cl)Cl

> <PUBCHEM_CONNECTIVITY_SMILES>
[NH4+].[NH4+].[NH4+].Cl[Rh-3](Cl)(Cl)(Cl)(Cl)Cl

> <PUBCHEM_CACTVS_TPSA>
3

> <PUBCHEM_MONOISOTOPIC_WEIGHT>
366.82173

> <PUBCHEM_TOTAL_CHARGE>
0

> <PUBCHEM_HEAVY_ATOM_COUNT>
10

> <PUBCHEM_ATOM_DEF_STEREO_COUNT>
0

> <PUBCHEM_ATOM_UDEF_STEREO_COUNT>
0

> <PUBCHEM_BOND_DEF_STEREO_COUNT>
0

> <PUBCHEM_BOND_UDEF_STEREO_COUNT>
0

> <PUBCHEM_ISOTOPIC_ATOM_COUNT>
0

> <PUBCHEM_COMPONENT_COUNT>
4

> <PUBCHEM_CACTVS_TAUTO_COUNT>
-1

> <PUBCHEM_COORDINATE_TYPE>
1
5
255

$$$$
