56923611
  -OEChem-08152605262D

 10  6  0     0  0  0  0  0  0999 V2000
    0.8660    1.0000    0.0000 Rh  0  7  0  0  0  0  0  0  0  0  0  0
    3.7321    0.7500    0.0000 K   0  3  0  0  0  0  0  0  0  0  0  0
    3.7321    3.2500    0.0000 K   0  3  0  0  0  0  0  0  0  0  0  0
    0.6160    4.0000    0.0000 K   0  3  0  0  0  0  0  0  0  0  0  0
    1.7321    1.5000    0.0000 Cl  0  0  0  0  0  0  0  0  0  0  0  0
    0.0000    0.5000    0.0000 Cl  0  0  0  0  0  0  0  0  0  0  0  0
    0.0000    1.5000    0.0000 Cl  0  0  0  0  0  0  0  0  0  0  0  0
    0.8660    0.0000    0.0000 Cl  0  0  0  0  0  0  0  0  0  0  0  0
    0.8660    2.0000    0.0000 Cl  0  0  0  0  0  0  0  0  0  0  0  0
    1.7321    0.5000    0.0000 Cl  0  0  0  0  0  0  0  0  0  0  0  0
  1  5  1  0  0  0  0
  1  6  1  0  0  0  0
  1  7  1  0  0  0  0
  1  8  1  0  0  0  0
  1  9  1  0  0  0  0
  1 10  1  0  0  0  0
M  CHG  4   1  -3   2   1   3   1   4   1
M  END
> <PUBCHEM_COMPOUND_CID>
56923611

> <PUBCHEM_COMPOUND_CANONICALIZED>
1

> <PUBCHEM_CACTVS_COMPLEXITY>
62.7

> <PUBCHEM_CACTVS_HBOND_ACCEPTOR>
1

> <PUBCHEM_CACTVS_HBOND_DONOR>
0

> <PUBCHEM_CACTVS_ROTATABLE_BOND>
0

> <PUBCHEM_CACTVS_SUBSKEYS>
AAADcQAAAAAHYAAAABAAAAAAAAAAAAAAAAAAAAAAAAAAAAAAAAAAAAAAAAAAAAAAAAAAAAAAAAAAAAAAAAAAAAAAAAAAAAAAAAAAAAAAAAAAAAAAAAAAAAAAAAAAAAAAAAAAAAAAAAAAAAAAAAAAAAAAAA==

> <PUBCHEM_IUPAC_OPENEYE_NAME>
tripotassium;hexachlororhodium(3-)

> <PUBCHEM_IUPAC_CAS_NAME>
tripotassium;hexachlororhodium(3-)

> <PUBCHEM_IUPAC_NAME_MARKUP>
tripotassium;hexachlororhodium(3-)

> <PUBCHEM_IUPAC_NAME>
tripotassium;hexachlororhodium(3-)

> <PUBCHEM_IUPAC_SYSTEMATIC_NAME>
tripotassium;hexakis(chloranyl)rhodium(3-)

> <PUBCHEM_IUPAC_TRADITIONAL_NAME>
tripotassium;hexachlororhodium(3-)

> <PUBCHEM_IUPAC_INCHI>
InChI=1S/6ClH.3K.Rh/h6*1H;;;;/q;;;;;;3*+1;+3/p-6

> <PUBCHEM_IUPAC_INCHIKEY>
OTOHACXAQUCHJO-UHFFFAOYSA-H

> <PUBCHEM_EXACT_MASS>
431.60678

> <PUBCHEM_MOLECULAR_FORMULA>
Cl6K3Rh

> <PUBCHEM_MOLECULAR_WEIGHT>
432.9

> <PUBCHEM_SMILES>
Cl[Rh-3](Cl)(Cl)(Cl)(Cl)Cl.[K+].[K+].[K+]

> <PUBCHEM_CONNECTIVITY_SMILES>
Cl[Rh-3](Cl)(Cl)(Cl)(Cl)Cl.[K+].[K+].[K+]

> <PUBCHEM_CACTVS_TPSA>
0

> <PUBCHEM_MONOISOTOPIC_WEIGHT>
429.60973

> <PUBCHEM_TOTAL_CHARGE>
0

> <PUBCHEM_HEAVY_ATOM_COUNT>
10

> <PUBCHEM_ATOM_DEF_STEREO_COUNT>
0

> <PUBCHEM_ATOM_UDEF_STEREO_COUNT>
0

> <PUBCHEM_BOND_DEF_STEREO_COUNT>
0

> <PUBCHEM_BOND_UDEF_STEREO_COUNT>
0

> <PUBCHEM_ISOTOPIC_ATOM_COUNT>
0

> <PUBCHEM_COMPONENT_COUNT>
4

> <PUBCHEM_CACTVS_TAUTO_COUNT>
-1

> <PUBCHEM_COORDINATE_TYPE>
1
5
255

$$$$
