92028829
  -OEChem-08152605162D

 11  9  0     0  0  0  0  0  0999 V2000
    0.8660    1.0000    0.0000 U   0  0  0  0  0  0  0  0  0  0  0  0
    2.5981    1.0000    0.0000 U   0  0  0  0  0  0  0  0  0  0  0  0
    1.7321    4.5000    0.0000 U   0  0  0  0  0  0  0  0  0  0  0  0
    1.7321    1.5000    0.0000 O   0  0  0  0  0  0  0  0  0  0  0  0
    0.0000    1.5000    0.0000 O   0  0  0  0  0  0  0  0  0  0  0  0
    0.8660    0.0000    0.0000 O   0  0  0  0  0  0  0  0  0  0  0  0
    3.4641    1.5000    0.0000 O   0  0  0  0  0  0  0  0  0  0  0  0
    2.5981    0.0000    0.0000 O   0  0  0  0  0  0  0  0  0  0  0  0
    2.5981    5.0000    0.0000 O   0  0  0  0  0  0  0  0  0  0  0  0
    0.8660    5.0000    0.0000 O   0  0  0  0  0  0  0  0  0  0  0  0
    1.7321    3.5000    0.0000 O   0  0  0  0  0  0  0  0  0  0  0  0
  1  4  1  0  0  0  0
  1  5  2  0  0  0  0
  1  6  2  0  0  0  0
  2  4  1  0  0  0  0
  2  7  2  0  0  0  0
  2  8  2  0  0  0  0
  3  9  2  0  0  0  0
  3 10  2  0  0  0  0
  3 11  2  0  0  0  0
M  END
> <PUBCHEM_COMPOUND_CID>
92028829

> <PUBCHEM_COMPOUND_CANONICALIZED>
1

> <PUBCHEM_CACTVS_COMPLEXITY>
185

> <PUBCHEM_CACTVS_HBOND_ACCEPTOR>
8

> <PUBCHEM_CACTVS_HBOND_DONOR>
0

> <PUBCHEM_CACTVS_ROTATABLE_BOND>
0

> <PUBCHEM_CACTVS_SUBSKEYS>
AAADcQAAPAAAAAAAAAAAAAAAIAAAAAAAAAAAAAAAAAAAAAAAAAAAAAAAAAAAAAAAAAAAAAAAAAAAAAAAAAAAAAAAAAAAAAAAAAAAAAAAAAAAAAAAAAAAAAAAAAAAAAAAAAAAAAAAAAAAAAAAAAAAAAAAAA==

> <PUBCHEM_IUPAC_INCHI>
InChI=1S/8O.3U

> <PUBCHEM_IUPAC_INCHIKEY>
IQWPWKFTJFECBS-UHFFFAOYSA-N

> <PUBCHEM_EXACT_MASS>
842.11168

> <PUBCHEM_MOLECULAR_FORMULA>
O8U3

> <PUBCHEM_MOLECULAR_WEIGHT>
842.08

> <PUBCHEM_SMILES>
O=[U](=O)=O.O=[U](=O)O[U](=O)=O

> <PUBCHEM_CONNECTIVITY_SMILES>
O=[U](=O)=O.O=[U](=O)O[U](=O)=O

> <PUBCHEM_CACTVS_TPSA>
129

> <PUBCHEM_MONOISOTOPIC_WEIGHT>
842.11168

> <PUBCHEM_TOTAL_CHARGE>
0

> <PUBCHEM_HEAVY_ATOM_COUNT>
11

> <PUBCHEM_ATOM_DEF_STEREO_COUNT>
0

> <PUBCHEM_ATOM_UDEF_STEREO_COUNT>
0

> <PUBCHEM_BOND_DEF_STEREO_COUNT>
0

> <PUBCHEM_BOND_UDEF_STEREO_COUNT>
0

> <PUBCHEM_ISOTOPIC_ATOM_COUNT>
0

> <PUBCHEM_COMPONENT_COUNT>
2

> <PUBCHEM_CACTVS_TAUTO_COUNT>
-1

> <PUBCHEM_COORDINATE_TYPE>
1
5
255

$$$$
