2724274
  -OEChem-08152604312D

  2  1  0     0  0  0  0  0  0999 V2000
    3.0000    0.0000    0.0000 W   0  3  0  0  0  0  0  0  0  0  0  0
    2.0000    0.0000    0.0000 C   0  5  0  0  0  0  0  0  0  0  0  0
  1  2  3  0  0  0  0
M  CHG  2   1   1   2  -1
M  END
> <PUBCHEM_COMPOUND_CID>
2724274

> <PUBCHEM_COMPOUND_CANONICALIZED>
1

> <PUBCHEM_CACTVS_COMPLEXITY>
10

> <PUBCHEM_CACTVS_HBOND_ACCEPTOR>
1

> <PUBCHEM_CACTVS_HBOND_DONOR>
0

> <PUBCHEM_CACTVS_ROTATABLE_BOND>
0

> <PUBCHEM_CACTVS_SUBSKEYS>
AAADcQAAAAAAAAAAAAAAQAAAAAAAAAAAAAAAAAAAAAAAAAAAAAAAAAAAAAAAAAAAAAAAAAAAAAAAAAAAAAAAAAAAAAAAAAAAAAAAAAAAAAAAAAAAAAAAAAAAAAAAAAAAAAAAAAAAAAAAAAAAAAAAAAAAAA==

> <PUBCHEM_IUPAC_OPENEYE_NAME>
methanidylidynetungsten(1+)

> <PUBCHEM_IUPAC_CAS_NAME>
methanidylidynetungsten(1+)

> <PUBCHEM_IUPAC_NAME_MARKUP>
methanidylidynetungsten(1+)

> <PUBCHEM_IUPAC_NAME>
methanidylidynetungsten(1+)

> <PUBCHEM_IUPAC_SYSTEMATIC_NAME>
methanidylidynetungsten(1+)

> <PUBCHEM_IUPAC_TRADITIONAL_NAME>
methanidylidynetungsten(1+)

> <PUBCHEM_IUPAC_INCHI>
InChI=1S/C.W/q-1;+1

> <PUBCHEM_IUPAC_INCHIKEY>
UONOETXJSWQNOL-UHFFFAOYSA-N

> <PUBCHEM_EXACT_MASS>
195.950933

> <PUBCHEM_MOLECULAR_FORMULA>
CW

> <PUBCHEM_MOLECULAR_WEIGHT>
195.85

> <PUBCHEM_SMILES>
[C-]#[W+]

> <PUBCHEM_CONNECTIVITY_SMILES>
[C-]#[W+]

> <PUBCHEM_CACTVS_TPSA>
0

> <PUBCHEM_MONOISOTOPIC_WEIGHT>
195.950933

> <PUBCHEM_TOTAL_CHARGE>
0

> <PUBCHEM_HEAVY_ATOM_COUNT>
2

> <PUBCHEM_ATOM_DEF_STEREO_COUNT>
0

> <PUBCHEM_ATOM_UDEF_STEREO_COUNT>
0

> <PUBCHEM_BOND_DEF_STEREO_COUNT>
0

> <PUBCHEM_BOND_UDEF_STEREO_COUNT>
0

> <PUBCHEM_ISOTOPIC_ATOM_COUNT>
0

> <PUBCHEM_COMPONENT_COUNT>
1

> <PUBCHEM_CACTVS_TAUTO_COUNT>
-1

> <PUBCHEM_COORDINATE_TYPE>
1
5
255

$$$$
