82938
  -OEChem-08152607292D

  3  2  0     0  0  0  0  0  0999 V2000
    2.8660    0.0000    0.0000 W   0  0  0  0  0  0  0  0  0  0  0  0
    3.7321    0.5000    0.0000 S   0  0  0  0  0  0  0  0  0  0  0  0
    2.0000   -0.5000    0.0000 S   0  0  0  0  0  0  0  0  0  0  0  0
  1  2  2  0  0  0  0
  1  3  2  0  0  0  0
M  END
> <PUBCHEM_COMPOUND_CID>
82938

> <PUBCHEM_COMPOUND_CANONICALIZED>
1

> <PUBCHEM_CACTVS_COMPLEXITY>
18.3

> <PUBCHEM_CACTVS_HBOND_ACCEPTOR>
2

> <PUBCHEM_CACTVS_HBOND_DONOR>
0

> <PUBCHEM_CACTVS_ROTATABLE_BOND>
0

> <PUBCHEM_CACTVS_SUBSKEYS>
AAADcQAAAABgAAAAAAAAQAAAAAAAAAAAAAAAAAAAAAAAAAAAAAAAAAAAAAAAAAAAAAAAAAAAAAAAAAAAAAAAAAAAAAAAAAAAAAAAAAAAAAAAAAAAAAAAAAAAAAAAAAAAAAAAAAAAAAAAAAAAAAAAAAAAAA==

> <PUBCHEM_IUPAC_OPENEYE_NAME>
dithioxotungsten

> <PUBCHEM_IUPAC_CAS_NAME>
bis(sulfanylidene)tungsten

> <PUBCHEM_IUPAC_NAME_MARKUP>
bis(sulfanylidene)tungsten

> <PUBCHEM_IUPAC_NAME>
bis(sulfanylidene)tungsten

> <PUBCHEM_IUPAC_SYSTEMATIC_NAME>
bis(sulfanylidene)tungsten

> <PUBCHEM_IUPAC_TRADITIONAL_NAME>
dithioxotungsten

> <PUBCHEM_IUPAC_INCHI>
InChI=1S/2S.W

> <PUBCHEM_IUPAC_INCHIKEY>
ITRNXVSDJBHYNJ-UHFFFAOYSA-N

> <PUBCHEM_EXACT_MASS>
247.895076

> <PUBCHEM_MOLECULAR_FORMULA>
S2W

> <PUBCHEM_MOLECULAR_WEIGHT>
248.0

> <PUBCHEM_SMILES>
S=[W]=S

> <PUBCHEM_CONNECTIVITY_SMILES>
S=[W]=S

> <PUBCHEM_CACTVS_TPSA>
64.2

> <PUBCHEM_MONOISOTOPIC_WEIGHT>
247.895076

> <PUBCHEM_TOTAL_CHARGE>
0

> <PUBCHEM_HEAVY_ATOM_COUNT>
3

> <PUBCHEM_ATOM_DEF_STEREO_COUNT>
0

> <PUBCHEM_ATOM_UDEF_STEREO_COUNT>
0

> <PUBCHEM_BOND_DEF_STEREO_COUNT>
0

> <PUBCHEM_BOND_UDEF_STEREO_COUNT>
0

> <PUBCHEM_ISOTOPIC_ATOM_COUNT>
0

> <PUBCHEM_COMPONENT_COUNT>
1

> <PUBCHEM_CACTVS_TAUTO_COUNT>
-1

> <PUBCHEM_COORDINATE_TYPE>
1
5
255

$$$$
