173056268
  -OEChem-08152606542D

  4  0  0     0  0  0  0  0  0999 V2000
    0.0000    2.5000    0.0000 W   0  0  0  0  0  0  0  0  0  0  0  0
    0.0000    0.0000    0.0000 Br  0  5  0  0  0  0  0  0  0  0  0  0
    2.5000    0.0000    0.0000 Br  0  5  0  0  0  0  0  0  0  0  0  0
    2.5000    2.5000    0.0000 Br  0  5  0  0  0  0  0  0  0  0  0  0
M  CHG  3   2  -1   3  -1   4  -1
M  END
> <PUBCHEM_COMPOUND_CID>
173056268

> <PUBCHEM_COMPOUND_CANONICALIZED>
1

> <PUBCHEM_CACTVS_COMPLEXITY>
0

> <PUBCHEM_CACTVS_HBOND_ACCEPTOR>
3

> <PUBCHEM_CACTVS_HBOND_DONOR>
0

> <PUBCHEM_CACTVS_ROTATABLE_BOND>
0

> <PUBCHEM_CACTVS_SUBSKEYS>
AAADcQAAAAAAGAAAAAAAQAAAAAAAAAAAAAAAAAAAAAAAAAAAAAAAAAAAAAAAAAAAAAAAAAAAAAAAAAAAAAAAAAAAAAAAAAAAAAAAAAAAAAAAAAAAAAAAAAAAAAAAAAAAAAAAAAAAAAAAAAAAAAAAAAAAAA==

> <PUBCHEM_IUPAC_OPENEYE_NAME>
tungsten tribromide

> <PUBCHEM_IUPAC_CAS_NAME>
tungsten tribromide

> <PUBCHEM_IUPAC_NAME_MARKUP>
tungsten tribromide

> <PUBCHEM_IUPAC_NAME>
tungsten tribromide

> <PUBCHEM_IUPAC_SYSTEMATIC_NAME>
tungsten tribromide

> <PUBCHEM_IUPAC_TRADITIONAL_NAME>
tungsten tribromide

> <PUBCHEM_IUPAC_INCHI>
InChI=1S/3BrH.W/h3*1H;/p-3

> <PUBCHEM_IUPAC_INCHIKEY>
OGRHNAUONCBGDY-UHFFFAOYSA-K

> <PUBCHEM_EXACT_MASS>
422.70390

> <PUBCHEM_MOLECULAR_FORMULA>
Br3W-3

> <PUBCHEM_MOLECULAR_WEIGHT>
423.55

> <PUBCHEM_SMILES>
[Br-].[Br-].[Br-].[W]

> <PUBCHEM_CONNECTIVITY_SMILES>
[Br-].[Br-].[Br-].[W]

> <PUBCHEM_CACTVS_TPSA>
0

> <PUBCHEM_MONOISOTOPIC_WEIGHT>
420.70595

> <PUBCHEM_TOTAL_CHARGE>
-3

> <PUBCHEM_HEAVY_ATOM_COUNT>
4

> <PUBCHEM_ATOM_DEF_STEREO_COUNT>
0

> <PUBCHEM_ATOM_UDEF_STEREO_COUNT>
0

> <PUBCHEM_BOND_DEF_STEREO_COUNT>
0

> <PUBCHEM_BOND_UDEF_STEREO_COUNT>
0

> <PUBCHEM_ISOTOPIC_ATOM_COUNT>
0

> <PUBCHEM_COMPONENT_COUNT>
4

> <PUBCHEM_CACTVS_TAUTO_COUNT>
-1

> <PUBCHEM_COORDINATE_TYPE>
1
5
255

$$$$
