533504
  -OEChem-08152605572D

  3  2  0     0  0  0  0  0  0999 V2000
    2.8660   -0.2500    0.0000 W   0  0  0  0  0  0  0  0  0  0  0  0
    3.7320    0.2500    0.0000 I   0  0  0  0  0  0  0  0  0  0  0  0
    2.0000    0.2500    0.0000 I   0  0  0  0  0  0  0  0  0  0  0  0
  1  2  1  0  0  0  0
  1  3  1  0  0  0  0
M  END
> <PUBCHEM_COMPOUND_CID>
533504

> <PUBCHEM_COMPOUND_CANONICALIZED>
1

> <PUBCHEM_CACTVS_COMPLEXITY>
2.8

> <PUBCHEM_CACTVS_HBOND_ACCEPTOR>
0

> <PUBCHEM_CACTVS_HBOND_DONOR>
0

> <PUBCHEM_CACTVS_ROTATABLE_BOND>
0

> <PUBCHEM_CACTVS_SUBSKEYS>
AAADcQAAAAAAAwAAAAAAQAAAAAAAAAAAAAAAAAAAAAAAAAAAAAAAAAAAAAAAAAAAAAAAAAAAAAAAAAAAAAAAAAAAAAAAAAAAAAAAAAAAAAAAAAAAAAAAAAAAAAAAAAAAAAAAAAAAAAAAAAAAAAAAAAAAAA==

> <PUBCHEM_IUPAC_OPENEYE_NAME>
diiodotungsten

> <PUBCHEM_IUPAC_CAS_NAME>
diiodotungsten

> <PUBCHEM_IUPAC_NAME_MARKUP>
diiodotungsten

> <PUBCHEM_IUPAC_NAME>
diiodotungsten

> <PUBCHEM_IUPAC_SYSTEMATIC_NAME>
bis(iodanyl)tungsten

> <PUBCHEM_IUPAC_TRADITIONAL_NAME>
diiodotungsten

> <PUBCHEM_IUPAC_INCHI>
InChI=1S/2HI.W/h2*1H;/q;;+2/p-2

> <PUBCHEM_IUPAC_INCHIKEY>
BMKSRUJKNOBSHP-UHFFFAOYSA-L

> <PUBCHEM_EXACT_MASS>
437.75988

> <PUBCHEM_MOLECULAR_FORMULA>
I2W

> <PUBCHEM_MOLECULAR_WEIGHT>
437.65

> <PUBCHEM_SMILES>
I[W]I

> <PUBCHEM_CONNECTIVITY_SMILES>
I[W]I

> <PUBCHEM_CACTVS_TPSA>
0

> <PUBCHEM_MONOISOTOPIC_WEIGHT>
437.75988

> <PUBCHEM_TOTAL_CHARGE>
0

> <PUBCHEM_HEAVY_ATOM_COUNT>
3

> <PUBCHEM_ATOM_DEF_STEREO_COUNT>
0

> <PUBCHEM_ATOM_UDEF_STEREO_COUNT>
0

> <PUBCHEM_BOND_DEF_STEREO_COUNT>
0

> <PUBCHEM_BOND_UDEF_STEREO_COUNT>
0

> <PUBCHEM_ISOTOPIC_ATOM_COUNT>
0

> <PUBCHEM_COMPONENT_COUNT>
1

> <PUBCHEM_CACTVS_TAUTO_COUNT>
-1

> <PUBCHEM_COORDINATE_TYPE>
1
5
255

$$$$
