83301
  -OEChem-08152607352D

  7  6  0     0  0  0  0  0  0999 V2000
    2.8660    0.0000    0.0000 W   0  0  0  0  0  0  0  0  0  0  0  0
    3.7321    0.5000    0.0000 Cl  0  0  0  0  0  0  0  0  0  0  0  0
    2.0000   -0.5000    0.0000 Cl  0  0  0  0  0  0  0  0  0  0  0  0
    2.0000    0.5000    0.0000 Cl  0  0  0  0  0  0  0  0  0  0  0  0
    2.8660   -1.0000    0.0000 Cl  0  0  0  0  0  0  0  0  0  0  0  0
    2.8660    1.0000    0.0000 Cl  0  0  0  0  0  0  0  0  0  0  0  0
    3.7321   -0.5000    0.0000 Cl  0  0  0  0  0  0  0  0  0  0  0  0
  1  2  1  0  0  0  0
  1  3  1  0  0  0  0
  1  4  1  0  0  0  0
  1  5  1  0  0  0  0
  1  6  1  0  0  0  0
  1  7  1  0  0  0  0
M  END
> <PUBCHEM_COMPOUND_CID>
83301

> <PUBCHEM_COMPOUND_CANONICALIZED>
1

> <PUBCHEM_CACTVS_COMPLEXITY>
62.7

> <PUBCHEM_CACTVS_HBOND_ACCEPTOR>
0

> <PUBCHEM_CACTVS_HBOND_DONOR>
0

> <PUBCHEM_CACTVS_ROTATABLE_BOND>
0

> <PUBCHEM_CACTVS_SUBSKEYS>
AAADcQAAAAAHAAAAAAAAQAAAAAAAAAAAAAAAAAAAAAAAAAAAAAAAAAAAAAAAAAAAAAAAAAAAAAAAAAAAAAAAAAAAAAAAAAAAAAAAAAAAAAAAAAAAAAAAAAAAAAAAAAAAAAAAAAAAAAAAAAAAAAAAAAAAAA==

> <PUBCHEM_IUPAC_OPENEYE_NAME>
hexachlorotungsten

> <PUBCHEM_IUPAC_CAS_NAME>
hexachlorotungsten

> <PUBCHEM_IUPAC_NAME_MARKUP>
hexachlorotungsten

> <PUBCHEM_IUPAC_NAME>
hexachlorotungsten

> <PUBCHEM_IUPAC_SYSTEMATIC_NAME>
hexakis(chloranyl)tungsten

> <PUBCHEM_IUPAC_TRADITIONAL_NAME>
hexachlorotungsten

> <PUBCHEM_IUPAC_INCHI>
InChI=1S/6ClH.W/h6*1H;/q;;;;;;+6/p-6

> <PUBCHEM_IUPAC_INCHIKEY>
KPGXUAIFQMJJFB-UHFFFAOYSA-H

> <PUBCHEM_EXACT_MASS>
395.761099

> <PUBCHEM_MOLECULAR_FORMULA>
Cl6W

> <PUBCHEM_MOLECULAR_WEIGHT>
396.5

> <PUBCHEM_SMILES>
Cl[W](Cl)(Cl)(Cl)(Cl)Cl

> <PUBCHEM_CONNECTIVITY_SMILES>
Cl[W](Cl)(Cl)(Cl)(Cl)Cl

> <PUBCHEM_CACTVS_TPSA>
0

> <PUBCHEM_MONOISOTOPIC_WEIGHT>
393.764049

> <PUBCHEM_TOTAL_CHARGE>
0

> <PUBCHEM_HEAVY_ATOM_COUNT>
7

> <PUBCHEM_ATOM_DEF_STEREO_COUNT>
0

> <PUBCHEM_ATOM_UDEF_STEREO_COUNT>
0

> <PUBCHEM_BOND_DEF_STEREO_COUNT>
0

> <PUBCHEM_BOND_UDEF_STEREO_COUNT>
0

> <PUBCHEM_ISOTOPIC_ATOM_COUNT>
0

> <PUBCHEM_COMPONENT_COUNT>
1

> <PUBCHEM_CACTVS_TAUTO_COUNT>
-1

> <PUBCHEM_COORDINATE_TYPE>
1
5
255

$$$$
