11039977
  -OEChem-08152607312D

  4  3  0     0  0  0  0  0  0999 V2000
    2.8660    0.2500    0.0000 W   0  0  0  0  0  0  0  0  0  0  0  0
    3.7320    0.7500    0.0000 S   0  0  0  0  0  0  0  0  0  0  0  0
    2.0000    0.7500    0.0000 S   0  0  0  0  0  0  0  0  0  0  0  0
    2.8660   -0.7500    0.0000 S   0  0  0  0  0  0  0  0  0  0  0  0
  1  2  2  0  0  0  0
  1  3  2  0  0  0  0
  1  4  2  0  0  0  0
M  END
> <PUBCHEM_COMPOUND_CID>
11039977

> <PUBCHEM_COMPOUND_CANONICALIZED>
1

> <PUBCHEM_CACTVS_COMPLEXITY>
61.8

> <PUBCHEM_CACTVS_HBOND_ACCEPTOR>
3

> <PUBCHEM_CACTVS_HBOND_DONOR>
0

> <PUBCHEM_CACTVS_ROTATABLE_BOND>
0

> <PUBCHEM_CACTVS_SUBSKEYS>
AAADcQAAAABgAAAAAAAAQAAAAAAAAAAAAAAAAAAAAAAAAAAAAAAAAAAAAAAAAAAAAAAAAAAAAAAAAAAAAAAAAAAAAAAAAAAAAAAAAAAAAAAAAAAAAAAAAAAAAAAAAAAAAAAAAAAAAAAAAAAAAAAAAAAAAA==

> <PUBCHEM_IUPAC_OPENEYE_NAME>
trithioxotungsten

> <PUBCHEM_IUPAC_CAS_NAME>
tris(sulfanylidene)tungsten

> <PUBCHEM_IUPAC_NAME_MARKUP>
tris(sulfanylidene)tungsten

> <PUBCHEM_IUPAC_NAME>
tris(sulfanylidene)tungsten

> <PUBCHEM_IUPAC_SYSTEMATIC_NAME>
tris(sulfanylidene)tungsten

> <PUBCHEM_IUPAC_TRADITIONAL_NAME>
trithioxotungsten

> <PUBCHEM_IUPAC_INCHI>
InChI=1S/3S.W

> <PUBCHEM_IUPAC_INCHIKEY>
YMZATHYBBBKECM-UHFFFAOYSA-N

> <PUBCHEM_EXACT_MASS>
279.867147

> <PUBCHEM_MOLECULAR_FORMULA>
S3W

> <PUBCHEM_MOLECULAR_WEIGHT>
280.0

> <PUBCHEM_SMILES>
S=[W](=S)=S

> <PUBCHEM_CONNECTIVITY_SMILES>
S=[W](=S)=S

> <PUBCHEM_CACTVS_TPSA>
96.3

> <PUBCHEM_MONOISOTOPIC_WEIGHT>
279.867147

> <PUBCHEM_TOTAL_CHARGE>
0

> <PUBCHEM_HEAVY_ATOM_COUNT>
4

> <PUBCHEM_ATOM_DEF_STEREO_COUNT>
0

> <PUBCHEM_ATOM_UDEF_STEREO_COUNT>
0

> <PUBCHEM_BOND_DEF_STEREO_COUNT>
0

> <PUBCHEM_BOND_UDEF_STEREO_COUNT>
0

> <PUBCHEM_ISOTOPIC_ATOM_COUNT>
0

> <PUBCHEM_COMPONENT_COUNT>
1

> <PUBCHEM_CACTVS_TAUTO_COUNT>
-1

> <PUBCHEM_COORDINATE_TYPE>
1
5
255

$$$$
