56843145
  -OEChem-08152604462D

  5  2  0     0  0  0  0  0  0999 V2000
    0.0000    3.3660    0.0000 W   0  0  0  0  0  0  0  0  0  0  0  0
    0.5000    2.5000    0.0000 W   0  0  0  0  0  0  0  0  0  0  0  0
    0.0000    0.0000    0.0000 W   0  0  0  0  0  0  0  0  0  0  0  0
    1.0000    3.3660    0.0000 N   0  5  0  0  0  0  0  0  0  0  0  0
    1.0000    0.0000    0.0000 N   0  0  0  0  0  0  0  0  0  0  0  0
  2  4  2  0  0  0  0
  3  5  3  0  0  0  0
M  CHG  1   4  -1
M  END
> <PUBCHEM_COMPOUND_CID>
56843145

> <PUBCHEM_COMPOUND_CANONICALIZED>
1

> <PUBCHEM_CACTVS_COMPLEXITY>
12.8

> <PUBCHEM_CACTVS_HBOND_ACCEPTOR>
2

> <PUBCHEM_CACTVS_HBOND_DONOR>
0

> <PUBCHEM_CACTVS_ROTATABLE_BOND>
0

> <PUBCHEM_CACTVS_SUBSKEYS>
AAADcQADAAAAAAAAAAAAQAAAEAAAAAAAAAAAAAAAAAAAAAAAAAAAAAAAAAAAAAAAAAAAAAAAAAAAAAAAAAAAAAAAAAAAAAAAAAAAAAAAAAAAAAAAAAAAAAAAAAAAAAAAAAAAAAAAAAAAAAAAAAAAAAAAAA==

> <PUBCHEM_IUPAC_OPENEYE_NAME>
azanidylidenetungsten;nitridotungsten;tungsten

> <PUBCHEM_IUPAC_CAS_NAME>
azanidylidenetungsten;nitrilotungsten;tungsten

> <PUBCHEM_IUPAC_NAME_MARKUP>
azanidylidenetungsten;azanylidynetungsten;tungsten

> <PUBCHEM_IUPAC_NAME>
azanidylidenetungsten;azanylidynetungsten;tungsten

> <PUBCHEM_IUPAC_SYSTEMATIC_NAME>
azanidylidenetungsten;azanylidynetungsten;tungsten

> <PUBCHEM_IUPAC_TRADITIONAL_NAME>
amidylidenetungsten;nitrilotungsten;tungsten

> <PUBCHEM_IUPAC_INCHI>
InChI=1S/2N.3W/q;-1;;;

> <PUBCHEM_IUPAC_INCHIKEY>
JKSJNSUDCKPRRW-UHFFFAOYSA-N

> <PUBCHEM_EXACT_MASS>
579.85965

> <PUBCHEM_MOLECULAR_FORMULA>
N2W3-

> <PUBCHEM_MOLECULAR_WEIGHT>
579.5

> <PUBCHEM_SMILES>
[N-]=[W].N#[W].[W]

> <PUBCHEM_CONNECTIVITY_SMILES>
[N-]=[W].N#[W].[W]

> <PUBCHEM_CACTVS_TPSA>
24.8

> <PUBCHEM_MONOISOTOPIC_WEIGHT>
579.85895

> <PUBCHEM_TOTAL_CHARGE>
-1

> <PUBCHEM_HEAVY_ATOM_COUNT>
5

> <PUBCHEM_ATOM_DEF_STEREO_COUNT>
0

> <PUBCHEM_ATOM_UDEF_STEREO_COUNT>
0

> <PUBCHEM_BOND_DEF_STEREO_COUNT>
0

> <PUBCHEM_BOND_UDEF_STEREO_COUNT>
0

> <PUBCHEM_ISOTOPIC_ATOM_COUNT>
0

> <PUBCHEM_COMPONENT_COUNT>
3

> <PUBCHEM_CACTVS_TAUTO_COUNT>
-1

> <PUBCHEM_NONSTANDARDBOND>
1  2  6
1  4  6

> <PUBCHEM_COORDINATE_TYPE>
1
5
255

$$$$
