963
  -OEChem-08152603322D

145147  0     1  0  0  0  0  0999 V2000
   10.1588    4.1912    0.0000 P   0  0  3  0  0  0  0  0  0  0  0  0
    9.2928    5.6912    0.0000 P   0  0  3  0  0  0  0  0  0  0  0  0
    8.4268    3.1912    0.0000 O   0  0  0  0  0  0  0  0  0  0  0  0
    8.4268    0.1912    0.0000 O   0  0  0  0  0  0  0  0  0  0  0  0
   10.1588    3.1912    0.0000 O   0  0  0  0  0  0  0  0  0  0  0  0
    6.6947    1.1912    0.0000 O   0  0  0  0  0  0  0  0  0  0  0  0
    6.6472    7.2845    0.0000 O   0  0  0  0  0  0  0  0  0  0  0  0
    6.6947    4.1912    0.0000 O   0  0  0  0  0  0  0  0  0  0  0  0
    8.1994    9.3549    0.0000 O   0  0  0  0  0  0  0  0  0  0  0  0
    6.0714    9.8072    0.0000 O   0  0  0  0  0  0  0  0  0  0  0  0
    8.4268    6.1912    0.0000 O   0  0  0  0  0  0  0  0  0  0  0  0
   10.1588    5.1912    0.0000 O   0  0  0  0  0  0  0  0  0  0  0  0
   11.0249    2.6912    0.0000 O   0  0  0  0  0  0  0  0  0  0  0  0
   11.1588    4.1912    0.0000 O   0  0  0  0  0  0  0  0  0  0  0  0
   12.7569    2.6912    0.0000 O   0  0  0  0  0  0  0  0  0  0  0  0
    6.6947    0.1912    0.0000 O   0  0  0  0  0  0  0  0  0  0  0  0
    9.1588    4.1912    0.0000 O   0  0  0  0  0  0  0  0  0  0  0  0
    5.8287   -1.3088    0.0000 O   0  0  0  0  0  0  0  0  0  0  0  0
    9.7928    6.5572    0.0000 O   0  0  0  0  0  0  0  0  0  0  0  0
    8.7928    4.8252    0.0000 O   0  0  0  0  0  0  0  0  0  0  0  0
    5.1646    6.2005    0.0000 O   0  0  0  0  0  0  0  0  0  0  0  0
    2.0000    7.6095    0.0000 O   0  0  0  0  0  0  0  0  0  0  0  0
   10.1588    1.1912    0.0000 N   0  0  0  0  0  0  0  0  0  0  0  0
    4.9836    7.9231    0.0000 N   0  0  0  0  0  0  0  0  0  0  0  0
    3.5823    6.9050    0.0000 N   0  0  0  0  0  0  0  0  0  0  0  0
    9.2928    1.6912    0.0000 C   0  0  3  0  0  0  0  0  0  0  0  0
    8.4268    1.1912    0.0000 C   0  0  3  0  0  0  0  0  0  0  0  0
    7.5608    1.6912    0.0000 C   0  0  3  0  0  0  0  0  0  0  0  0
    7.5608    2.6912    0.0000 C   0  0  3  0  0  0  0  0  0  0  0  0
    9.2928    2.6912    0.0000 C   0  0  3  0  0  0  0  0  0  0  0  0
    6.6947    3.1912    0.0000 C   0  0  0  0  0  0  0  0  0  0  0  0
    7.4562    8.6857    0.0000 C   0  0  3  0  0  0  0  0  0  0  0  0
    7.5608    7.6912    0.0000 C   0  0  3  0  0  0  0  0  0  0  0  0
    6.4781    8.8936    0.0000 C   0  0  3  0  0  0  0  0  0  0  0  0
    5.9781    8.0276    0.0000 C   0  0  3  0  0  0  0  0  0  0  0  0
   11.0249    1.6912    0.0000 C   0  0  0  0  0  0  0  0  0  0  0  0
    8.4268    7.1912    0.0000 C   0  0  0  0  0  0  0  0  0  0  0  0
   11.8909    1.1912    0.0000 C   0  0  0  0  0  0  0  0  0  0  0  0
    7.5608   -0.3088    0.0000 C   0  0  0  0  0  0  0  0  0  0  0  0
   12.7569    1.6912    0.0000 C   0  0  3  0  0  0  0  0  0  0  0  0
    7.5608   -1.3088    0.0000 C   0  0  0  0  0  0  0  0  0  0  0  0
    6.6947   -1.8088    0.0000 C   0  0  3  0  0  0  0  0  0  0  0  0
   13.6229    1.1912    0.0000 C   0  0  0  0  0  0  0  0  0  0  0  0
    6.6947   -2.8088    0.0000 C   0  0  0  0  0  0  0  0  0  0  0  0
   14.4890    1.6912    0.0000 C   0  0  0  0  0  0  0  0  0  0  0  0
    4.5768    7.0096    0.0000 C   0  0  0  0  0  0  0  0  0  0  0  0
    4.3958    8.7321    0.0000 C   0  0  0  0  0  0  0  0  0  0  0  0
    5.8287   -3.3088    0.0000 C   0  0  0  0  0  0  0  0  0  0  0  0
   15.3550    1.1912    0.0000 C   0  0  0  0  0  0  0  0  0  0  0  0
    5.8287   -4.3088    0.0000 C   0  0  0  0  0  0  0  0  0  0  0  0
   16.2210    1.6912    0.0000 C   0  0  0  0  0  0  0  0  0  0  0  0
    4.9627   -4.8088    0.0000 C   0  0  0  0  0  0  0  0  0  0  0  0
   17.0870    1.1912    0.0000 C   0  0  0  0  0  0  0  0  0  0  0  0
    3.4013    8.6276    0.0000 C   0  0  0  0  0  0  0  0  0  0  0  0
    4.9627   -5.8088    0.0000 C   0  0  0  0  0  0  0  0  0  0  0  0
   17.9531    1.6912    0.0000 C   0  0  0  0  0  0  0  0  0  0  0  0
    2.9945    7.7140    0.0000 C   0  0  0  0  0  0  0  0  0  0  0  0
    4.0967   -6.3088    0.0000 C   0  0  0  0  0  0  0  0  0  0  0  0
   18.8191    1.1912    0.0000 C   0  0  0  0  0  0  0  0  0  0  0  0
    4.0967   -7.3088    0.0000 C   0  0  0  0  0  0  0  0  0  0  0  0
   19.6851    1.6912    0.0000 C   0  0  0  0  0  0  0  0  0  0  0  0
    3.2306   -7.8088    0.0000 C   0  0  0  0  0  0  0  0  0  0  0  0
   20.5511    1.1912    0.0000 C   0  0  0  0  0  0  0  0  0  0  0  0
    3.2306   -8.8088    0.0000 C   0  0  0  0  0  0  0  0  0  0  0  0
   21.4172    1.6912    0.0000 C   0  0  0  0  0  0  0  0  0  0  0  0
    2.3646   -9.3088    0.0000 C   0  0  0  0  0  0  0  0  0  0  0  0
   22.2832    1.1912    0.0000 C   0  0  0  0  0  0  0  0  0  0  0  0
    2.3646  -10.3088    0.0000 C   0  0  0  0  0  0  0  0  0  0  0  0
    9.8298    2.0012    0.0000 H   0  0  0  0  0  0  0  0  0  0  0  0
    8.9637    0.8812    0.0000 H   0  0  0  0  0  0  0  0  0  0  0  0
    7.5608    1.0712    0.0000 H   0  0  0  0  0  0  0  0  0  0  0  0
    7.5608    3.3112    0.0000 H   0  0  0  0  0  0  0  0  0  0  0  0
    9.2928    3.3112    0.0000 H   0  0  0  0  0  0  0  0  0  0  0  0
   10.1588    0.5712    0.0000 H   0  0  0  0  0  0  0  0  0  0  0  0
    6.0842    3.2989    0.0000 H   0  0  0  0  0  0  0  0  0  0  0  0
    6.4827    2.6086    0.0000 H   0  0  0  0  0  0  0  0  0  0  0  0
    8.0351    8.4636    0.0000 H   0  0  0  0  0  0  0  0  0  0  0  0
    7.5283    7.0721    0.0000 H   0  0  0  0  0  0  0  0  0  0  0  0
    6.8683    9.3755    0.0000 H   0  0  0  0  0  0  0  0  0  0  0  0
    5.7559    7.4488    0.0000 H   0  0  0  0  0  0  0  0  0  0  0  0
    6.1578    1.5012    0.0000 H   0  0  0  0  0  0  0  0  0  0  0  0
    9.0374    7.0836    0.0000 H   0  0  0  0  0  0  0  0  0  0  0  0
    8.6388    7.7738    0.0000 H   0  0  0  0  0  0  0  0  0  0  0  0
   11.4924    0.7163    0.0000 H   0  0  0  0  0  0  0  0  0  0  0  0
   12.2894    0.7163    0.0000 H   0  0  0  0  0  0  0  0  0  0  0  0
   12.2200    2.0012    0.0000 H   0  0  0  0  0  0  0  0  0  0  0  0
    7.7728   -1.8914    0.0000 H   0  0  0  0  0  0  0  0  0  0  0  0
    8.1713   -1.2011    0.0000 H   0  0  0  0  0  0  0  0  0  0  0  0
    6.6947   -1.1888    0.0000 H   0  0  0  0  0  0  0  0  0  0  0  0
   13.2244    0.7163    0.0000 H   0  0  0  0  0  0  0  0  0  0  0  0
   14.0215    0.7163    0.0000 H   0  0  0  0  0  0  0  0  0  0  0  0
    6.1578    4.5012    0.0000 H   0  0  0  0  0  0  0  0  0  0  0  0
    8.0705    9.9613    0.0000 H   0  0  0  0  0  0  0  0  0  0  0  0
    6.4358   10.3088    0.0000 H   0  0  0  0  0  0  0  0  0  0  0  0
    6.9068   -3.3914    0.0000 H   0  0  0  0  0  0  0  0  0  0  0  0
    7.3053   -2.7011    0.0000 H   0  0  0  0  0  0  0  0  0  0  0  0
   14.8875    2.1662    0.0000 H   0  0  0  0  0  0  0  0  0  0  0  0
   14.0904    2.1662    0.0000 H   0  0  0  0  0  0  0  0  0  0  0  0
    4.6480    9.2985    0.0000 H   0  0  0  0  0  0  0  0  0  0  0  0
    5.6167   -2.7262    0.0000 H   0  0  0  0  0  0  0  0  0  0  0  0
    5.2181   -3.4164    0.0000 H   0  0  0  0  0  0  0  0  0  0  0  0
   14.9565    0.7163    0.0000 H   0  0  0  0  0  0  0  0  0  0  0  0
   15.7535    0.7163    0.0000 H   0  0  0  0  0  0  0  0  0  0  0  0
    6.0408   -4.8914    0.0000 H   0  0  0  0  0  0  0  0  0  0  0  0
    6.4393   -4.2011    0.0000 H   0  0  0  0  0  0  0  0  0  0  0  0
   16.6195    2.1662    0.0000 H   0  0  0  0  0  0  0  0  0  0  0  0
   15.8225    2.1662    0.0000 H   0  0  0  0  0  0  0  0  0  0  0  0
    4.7506   -4.2262    0.0000 H   0  0  0  0  0  0  0  0  0  0  0  0
    4.3521   -4.9164    0.0000 H   0  0  0  0  0  0  0  0  0  0  0  0
   11.4688    4.7282    0.0000 H   0  0  0  0  0  0  0  0  0  0  0  0
   16.6885    0.7163    0.0000 H   0  0  0  0  0  0  0  0  0  0  0  0
   17.4856    0.7163    0.0000 H   0  0  0  0  0  0  0  0  0  0  0  0
   13.2939    3.0012    0.0000 H   0  0  0  0  0  0  0  0  0  0  0  0
    3.3301    6.3386    0.0000 H   0  0  0  0  0  0  0  0  0  0  0  0
    3.0368    9.1292    0.0000 H   0  0  0  0  0  0  0  0  0  0  0  0
    5.1747   -6.3914    0.0000 H   0  0  0  0  0  0  0  0  0  0  0  0
    5.5733   -5.7011    0.0000 H   0  0  0  0  0  0  0  0  0  0  0  0
   18.3516    2.1662    0.0000 H   0  0  0  0  0  0  0  0  0  0  0  0
   17.5545    2.1662    0.0000 H   0  0  0  0  0  0  0  0  0  0  0  0
    5.2918   -1.6188    0.0000 H   0  0  0  0  0  0  0  0  0  0  0  0
    3.8846   -5.7262    0.0000 H   0  0  0  0  0  0  0  0  0  0  0  0
    3.4861   -6.4164    0.0000 H   0  0  0  0  0  0  0  0  0  0  0  0
   18.4206    0.7163    0.0000 H   0  0  0  0  0  0  0  0  0  0  0  0
   19.2176    0.7163    0.0000 H   0  0  0  0  0  0  0  0  0  0  0  0
    4.3087   -7.8914    0.0000 H   0  0  0  0  0  0  0  0  0  0  0  0
    4.7072   -7.2011    0.0000 H   0  0  0  0  0  0  0  0  0  0  0  0
   10.4128    6.5572    0.0000 H   0  0  0  0  0  0  0  0  0  0  0  0
   20.0836    2.1662    0.0000 H   0  0  0  0  0  0  0  0  0  0  0  0
   19.2866    2.1662    0.0000 H   0  0  0  0  0  0  0  0  0  0  0  0
    3.0186   -7.2262    0.0000 H   0  0  0  0  0  0  0  0  0  0  0  0
    2.6201   -7.9164    0.0000 H   0  0  0  0  0  0  0  0  0  0  0  0
   20.1526    0.7163    0.0000 H   0  0  0  0  0  0  0  0  0  0  0  0
   20.9497    0.7163    0.0000 H   0  0  0  0  0  0  0  0  0  0  0  0
    3.4427   -9.3914    0.0000 H   0  0  0  0  0  0  0  0  0  0  0  0
    3.8412   -8.7011    0.0000 H   0  0  0  0  0  0  0  0  0  0  0  0
   21.8157    2.1662    0.0000 H   0  0  0  0  0  0  0  0  0  0  0  0
   21.0186    2.1662    0.0000 H   0  0  0  0  0  0  0  0  0  0  0  0
    2.1526   -8.7262    0.0000 H   0  0  0  0  0  0  0  0  0  0  0  0
    1.7540   -9.4164    0.0000 H   0  0  0  0  0  0  0  0  0  0  0  0
   21.9732    0.6543    0.0000 H   0  0  0  0  0  0  0  0  0  0  0  0
   22.8201    0.8812    0.0000 H   0  0  0  0  0  0  0  0  0  0  0  0
   22.5932    1.7282    0.0000 H   0  0  0  0  0  0  0  0  0  0  0  0
    1.7446  -10.3088    0.0000 H   0  0  0  0  0  0  0  0  0  0  0  0
    2.3646  -10.9288    0.0000 H   0  0  0  0  0  0  0  0  0  0  0  0
    2.9846  -10.3088    0.0000 H   0  0  0  0  0  0  0  0  0  0  0  0
  1  5  1  0  0  0  0
  1 12  1  0  0  0  0
  1 14  1  0  0  0  0
  1 17  2  0  0  0  0
  2 11  1  0  0  0  0
  2 12  1  0  0  0  0
  2 19  1  0  0  0  0
  2 20  2  0  0  0  0
  3 29  1  0  0  0  0
  3 30  1  0  0  0  0
  4 27  1  0  0  0  0
  4 39  1  0  0  0  0
  5 30  1  0  0  0  0
  6 28  1  0  0  0  0
  6 81  1  0  0  0  0
  7 33  1  0  0  0  0
  7 35  1  0  0  0  0
  8 31  1  0  0  0  0
  8 92  1  0  0  0  0
  9 32  1  0  0  0  0
  9 93  1  0  0  0  0
 10 34  1  0  0  0  0
 10 94  1  0  0  0  0
 11 37  1  0  0  0  0
 13 36  2  0  0  0  0
 14110  1  0  0  0  0
 15 40  1  0  0  0  0
 15113  1  0  0  0  0
 16 39  2  0  0  0  0
 18 42  1  0  0  0  0
 18120  1  0  0  0  0
 19127  1  0  0  0  0
 21 46  2  0  0  0  0
 22 57  2  0  0  0  0
 23 26  1  0  0  0  0
 23 36  1  0  0  0  0
 23 74  1  0  0  0  0
 24 35  1  0  0  0  0
 24 46  1  0  0  0  0
 24 47  1  0  0  0  0
 25 46  1  0  0  0  0
 25 57  1  0  0  0  0
 25114  1  0  0  0  0
 26 27  1  0  0  0  0
 26 30  1  0  0  0  0
 26 69  1  0  0  0  0
 27 28  1  0  0  0  0
 27 70  1  0  0  0  0
 28 29  1  0  0  0  0
 28 71  1  0  0  0  0
 29 31  1  0  0  0  0
 29 72  1  0  0  0  0
 30 73  1  0  0  0  0
 31 75  1  0  0  0  0
 31 76  1  0  0  0  0
 32 33  1  0  0  0  0
 32 34  1  0  0  0  0
 32 77  1  0  0  0  0
 33 37  1  0  0  0  0
 33 78  1  0  0  0  0
 34 35  1  0  0  0  0
 34 79  1  0  0  0  0
 35 80  1  0  0  0  0
 36 38  1  0  0  0  0
 37 82  1  0  0  0  0
 37 83  1  0  0  0  0
 38 40  1  0  0  0  0
 38 84  1  0  0  0  0
 38 85  1  0  0  0  0
 39 41  1  0  0  0  0
 40 43  1  0  0  0  0
 40 86  1  0  0  0  0
 41 42  1  0  0  0  0
 41 87  1  0  0  0  0
 41 88  1  0  0  0  0
 42 44  1  0  0  0  0
 42 89  1  0  0  0  0
 43 45  1  0  0  0  0
 43 90  1  0  0  0  0
 43 91  1  0  0  0  0
 44 48  1  0  0  0  0
 44 95  1  0  0  0  0
 44 96  1  0  0  0  0
 45 49  1  0  0  0  0
 45 97  1  0  0  0  0
 45 98  1  0  0  0  0
 47 54  2  0  0  0  0
 47 99  1  0  0  0  0
 48 50  1  0  0  0  0
 48100  1  0  0  0  0
 48101  1  0  0  0  0
 49 51  1  0  0  0  0
 49102  1  0  0  0  0
 49103  1  0  0  0  0
 50 52  1  0  0  0  0
 50104  1  0  0  0  0
 50105  1  0  0  0  0
 51 53  1  0  0  0  0
 51106  1  0  0  0  0
 51107  1  0  0  0  0
 52 55  1  0  0  0  0
 52108  1  0  0  0  0
 52109  1  0  0  0  0
 53 56  1  0  0  0  0
 53111  1  0  0  0  0
 53112  1  0  0  0  0
 54 57  1  0  0  0  0
 54115  1  0  0  0  0
 55 58  1  0  0  0  0
 55116  1  0  0  0  0
 55117  1  0  0  0  0
 56 59  1  0  0  0  0
 56118  1  0  0  0  0
 56119  1  0  0  0  0
 58 60  1  0  0  0  0
 58121  1  0  0  0  0
 58122  1  0  0  0  0
 59 61  1  0  0  0  0
 59123  1  0  0  0  0
 59124  1  0  0  0  0
 60 62  1  0  0  0  0
 60125  1  0  0  0  0
 60126  1  0  0  0  0
 61 63  1  0  0  0  0
 61128  1  0  0  0  0
 61129  1  0  0  0  0
 62 64  1  0  0  0  0
 62130  1  0  0  0  0
 62131  1  0  0  0  0
 63 65  1  0  0  0  0
 63132  1  0  0  0  0
 63133  1  0  0  0  0
 64 66  1  0  0  0  0
 64134  1  0  0  0  0
 64135  1  0  0  0  0
 65 67  1  0  0  0  0
 65136  1  0  0  0  0
 65137  1  0  0  0  0
 66 68  1  0  0  0  0
 66138  1  0  0  0  0
 66139  1  0  0  0  0
 67140  1  0  0  0  0
 67141  1  0  0  0  0
 67142  1  0  0  0  0
 68143  1  0  0  0  0
 68144  1  0  0  0  0
 68145  1  0  0  0  0
M  END
> <PUBCHEM_COMPOUND_CID>
963

> <PUBCHEM_COMPOUND_CANONICALIZED>
1

> <PUBCHEM_CACTVS_COMPLEXITY>
1660

> <PUBCHEM_CACTVS_HBOND_ACCEPTOR>
20

> <PUBCHEM_CACTVS_HBOND_DONOR>
10

> <PUBCHEM_CACTVS_ROTATABLE_BOND>
36

> <PUBCHEM_CACTVS_SUBSKEYS>
AAADcfB/PgMAAAAAAAAAAAAAAAAAASAAAAAkQAAAAAAAAAAAAAAAHgAQCCAACDzxgAcDCAPABxCIQCHWWICAAAAAAgAIAIEIAECTEBYAgAAPQAAPNyKXAMH4+KeAAAAAAAAAAAAAAAAAAAAAAAAAAAAAAA==

> <PUBCHEM_IUPAC_OPENEYE_NAME>
[2-[[[5-(2,4-dioxopyrimidin-1-yl)-3,4-dihydroxy-tetrahydrofuran-2-yl]methoxy-hydroxy-phosphoryl]oxy-hydroxy-phosphoryl]oxy-5-hydroxy-6-(hydroxymethyl)-3-(3-hydroxytetradecanoylamino)tetrahydropyran-4-yl] 3-hydroxytetradecanoate

> <PUBCHEM_IUPAC_CAS_NAME>
3-hydroxytetradecanoic acid [2-[[[5-(2,4-dioxo-1-pyrimidinyl)-3,4-dihydroxy-2-oxolanyl]methoxy-hydroxyphosphoryl]oxy-hydroxyphosphoryl]oxy-5-hydroxy-6-(hydroxymethyl)-3-[(3-hydroxy-1-oxotetradecyl)amino]-4-oxanyl] ester

> <PUBCHEM_IUPAC_NAME_MARKUP>
[2-[[[5-(2,4-dioxopyrimidin-1-yl)-3,4-dihydroxyoxolan-2-yl]methoxy-hydroxyphosphoryl]oxy-hydroxyphosphoryl]oxy-5-hydroxy-6-(hydroxymethyl)-3-(3-hydroxytetradecanoylamino)oxan-4-yl] 3-hydroxytetradecanoate

> <PUBCHEM_IUPAC_NAME>
[2-[[[5-(2,4-dioxopyrimidin-1-yl)-3,4-dihydroxyoxolan-2-yl]methoxy-hydroxyphosphoryl]oxy-hydroxyphosphoryl]oxy-5-hydroxy-6-(hydroxymethyl)-3-(3-hydroxytetradecanoylamino)oxan-4-yl] 3-hydroxytetradecanoate

> <PUBCHEM_IUPAC_SYSTEMATIC_NAME>
[2-[[[5-[2,4-bis(oxidanylidene)pyrimidin-1-yl]-3,4-bis(oxidanyl)oxolan-2-yl]methoxy-oxidanyl-phosphoryl]oxy-oxidanyl-phosphoryl]oxy-6-(hydroxymethyl)-5-oxidanyl-3-(3-oxidanyltetradecanoylamino)oxan-4-yl] 3-oxidanyltetradecanoate

> <PUBCHEM_IUPAC_TRADITIONAL_NAME>
3-hydroxymyristic acid [2-[[[5-(2,4-diketopyrimidin-1-yl)-3,4-dihydroxy-tetrahydrofuran-2-yl]methoxy-hydroxy-phosphoryl]oxy-hydroxy-phosphoryl]oxy-5-hydroxy-3-(3-hydroxytetradecanoylamino)-6-methylol-tetrahydropyran-4-yl] ester

> <PUBCHEM_IUPAC_INCHI>
InChI=1S/C43H77N3O20P2/c1-3-5-7-9-11-13-15-17-19-21-29(48)25-34(51)44-36-40(64-35(52)26-30(49)22-20-18-16-14-12-10-8-6-4-2)38(54)31(27-47)63-42(36)65-68(59,60)66-67(57,58)61-28-32-37(53)39(55)41(62-32)46-24-23-33(50)45-43(46)56/h23-24,29-32,36-42,47-49,53-55H,3-22,25-28H2,1-2H3,(H,44,51)(H,57,58)(H,59,60)(H,45,50,56)

> <PUBCHEM_IUPAC_INCHIKEY>
KOJCFMYSTWNMQW-UHFFFAOYSA-N

> <PUBCHEM_XLOGP3_AA>
4.3

> <PUBCHEM_EXACT_MASS>
1017.45756585

> <PUBCHEM_MOLECULAR_FORMULA>
C43H77N3O20P2

> <PUBCHEM_MOLECULAR_WEIGHT>
1018.0

> <PUBCHEM_SMILES>
CCCCCCCCCCCC(CC(=O)NC1C(C(C(OC1OP(=O)(O)OP(=O)(O)OCC2C(C(C(O2)N3C=CC(=O)NC3=O)O)O)CO)O)OC(=O)CC(CCCCCCCCCCC)O)O

> <PUBCHEM_CONNECTIVITY_SMILES>
CCCCCCCCCCCC(CC(=O)NC1C(C(C(OC1OP(=O)(O)OP(=O)(O)OCC2C(C(C(O2)N3C=CC(=O)NC3=O)O)O)CO)O)OC(=O)CC(CCCCCCCCCCC)O)O

> <PUBCHEM_CACTVS_TPSA>
347

> <PUBCHEM_MONOISOTOPIC_WEIGHT>
1017.45756585

> <PUBCHEM_TOTAL_CHARGE>
0

> <PUBCHEM_HEAVY_ATOM_COUNT>
68

> <PUBCHEM_ATOM_DEF_STEREO_COUNT>
0

> <PUBCHEM_ATOM_UDEF_STEREO_COUNT>
11

> <PUBCHEM_BOND_DEF_STEREO_COUNT>
0

> <PUBCHEM_BOND_UDEF_STEREO_COUNT>
0

> <PUBCHEM_ISOTOPIC_ATOM_COUNT>
0

> <PUBCHEM_COMPONENT_COUNT>
1

> <PUBCHEM_CACTVS_TAUTO_COUNT>
-1

> <PUBCHEM_COORDINATE_TYPE>
1
5
255

> <PUBCHEM_BONDANNOTATIONS>
34  10  3
40  15  3
42  18  3
26  23  3
35  24  3
24  46  8
24  47  8
25  46  8
25  57  8
29  31  3
33  37  3
27  4  3
47  54  8
30  5  3
54  57  8
28  6  3
32  9  3

$$$$
