129654785
  -OEChem-08152605382D

 29 28  0     0  0  0  0  0  0999 V2000
    5.0142    0.0514    0.0000 U   0  0  0  0  0  0  0  0  0  0  0  0
    5.7508   -0.9312    0.0000 C   0  5  0  0  0  0  0  0  0  0  0  0
    5.4920   -1.8972    0.0000 C   0  5  0  0  0  0  0  0  0  0  0  0
    4.5142    0.9174    0.0000 C   0  5  0  0  0  0  0  0  0  0  0  0
    7.1825   -1.1289    0.0000 C   0  0  0  0  0  0  0  0  0  0  0  0
    4.2710   -2.7628    0.0000 C   0  0  0  0  0  0  0  0  0  0  0  0
    3.7176   -1.2424    0.0000 C   0  0  0  0  0  0  0  0  0  0  0  0
    6.7637   -2.6918    0.0000 C   0  0  0  0  0  0  0  0  0  0  0  0
    7.5408   -2.0625    0.0000 C   0  0  0  0  0  0  0  0  0  0  0  0
    3.4419   -2.2036    0.0000 C   0  0  0  0  0  0  0  0  0  0  0  0
    3.5228    0.7869    0.0000 C   0  0  0  0  0  0  0  0  0  0  0  0
    5.1230    1.7108    0.0000 C   0  0  0  0  0  0  0  0  0  0  0  0
    2.7294    1.3956    0.0000 C   0  0  0  0  0  0  0  0  0  0  0  0
    4.9924    2.7022    0.0000 C   0  0  0  0  0  0  0  0  0  0  0  0
    2.5989    2.3871    0.0000 C   0  0  0  0  0  0  0  0  0  0  0  0
    4.1991    3.3110    0.0000 C   0  0  0  0  0  0  0  0  0  0  0  0
    3.2076    3.1804    0.0000 C   0  5  0  0  0  0  0  0  0  0  0  0
    7.5678   -0.6432    0.0000 H   0  0  0  0  0  0  0  0  0  0  0  0
    4.2782   -3.3828    0.0000 H   0  0  0  0  0  0  0  0  0  0  0  0
    3.3359   -0.7538    0.0000 H   0  0  0  0  0  0  0  0  0  0  0  0
    6.7961   -3.3110    0.0000 H   0  0  0  0  0  0  0  0  0  0  0  0
    8.1397   -2.2230    0.0000 H   0  0  0  0  0  0  0  0  0  0  0  0
    2.8593   -2.4157    0.0000 H   0  0  0  0  0  0  0  0  0  0  0  0
    3.3623    0.1880    0.0000 H   0  0  0  0  0  0  0  0  0  0  0  0
    5.7218    1.5503    0.0000 H   0  0  0  0  0  0  0  0  0  0  0  0
    2.1925    1.0856    0.0000 H   0  0  0  0  0  0  0  0  0  0  0  0
    5.5294    3.0122    0.0000 H   0  0  0  0  0  0  0  0  0  0  0  0
    2.0000    2.5476    0.0000 H   0  0  0  0  0  0  0  0  0  0  0  0
    4.3595    3.9098    0.0000 H   0  0  0  0  0  0  0  0  0  0  0  0
  2  5  2  0  0  0  0
  2  7  1  0  0  0  0
  3  6  2  0  0  0  0
  3  8  1  0  0  0  0
  4 11  2  0  0  0  0
  4 12  1  0  0  0  0
  5  9  1  0  0  0  0
  5 18  1  0  0  0  0
  6 10  1  0  0  0  0
  6 19  1  0  0  0  0
  7 10  2  0  0  0  0
  7 20  1  0  0  0  0
  8  9  2  0  0  0  0
  8 21  1  0  0  0  0
  9 22  1  0  0  0  0
 10 23  1  0  0  0  0
 11 13  1  0  0  0  0
 11 24  1  0  0  0  0
 12 14  2  0  0  0  0
 12 25  1  0  0  0  0
 13 15  2  0  0  0  0
 13 26  1  0  0  0  0
 14 16  1  0  0  0  0
 14 27  1  0  0  0  0
 15 17  1  0  0  0  0
 15 28  1  0  0  0  0
 16 17  2  0  0  0  0
 16 29  1  0  0  0  0
M  CHG  5   1   4   2  -1   3  -1   4  -1  17  -1
M  END
> <PUBCHEM_COMPOUND_CID>
129654785

> <PUBCHEM_COMPOUND_CANONICALIZED>
1

> <PUBCHEM_CACTVS_COMPLEXITY>
343

> <PUBCHEM_CACTVS_HBOND_ACCEPTOR>
4

> <PUBCHEM_CACTVS_HBOND_DONOR>
0

> <PUBCHEM_CACTVS_ROTATABLE_BOND>
0

> <PUBCHEM_CACTVS_SUBSKEYS>
AAADccB4AAAAAAAAAAAAAAAAIAAAAAAAAAAgQAAAAAAQIAAAAAAAGAAAAAAACACAAAAAAAAAAACAACBCAAAAAAAAAAAICAAAAAAIAAAAAQAAAAAAAAAAgAAAAAAAAAAAAAAAAAAAAAAAAAAAAAAAAAAAAA==

> <PUBCHEM_IUPAC_OPENEYE_NAME>
bis(cyclooctatetraene);uranium(4+)

> <PUBCHEM_IUPAC_CAS_NAME>
bis(cyclooctatetraene);uranium(4+)

> <PUBCHEM_IUPAC_NAME_MARKUP>
bis(cyclooctatetraene);uranium(4+)

> <PUBCHEM_IUPAC_NAME>
bis(cyclooctatetraene);uranium(4+)

> <PUBCHEM_IUPAC_SYSTEMATIC_NAME>
bis(cyclooctatetraene);uranium(4+)

> <PUBCHEM_IUPAC_TRADITIONAL_NAME>
bis(cyclooctatetraene);uranium(4+)

> <PUBCHEM_IUPAC_INCHI>
InChI=1S/2C8H6.U/c2*1-2-4-6-8-7-5-3-1;/h2*1-3,6-8H;/q2*-2;+4/b2*2-1-,3-1?,8-6?,8-7-;

> <PUBCHEM_IUPAC_INCHIKEY>
KFOPDLKCESMWPW-YTBUGUEYSA-N

> <PUBCHEM_EXACT_MASS>
442.14469

> <PUBCHEM_MOLECULAR_FORMULA>
C16H12U

> <PUBCHEM_MOLECULAR_WEIGHT>
442.29

> <PUBCHEM_SMILES>
C\1=C\[C-]=C/C=C\[C-]=C1.C\1=C\[C-]=C/C=C\[C-]=C1.[U+4]

> <PUBCHEM_CONNECTIVITY_SMILES>
C1=C[C-]=CC=C[C-]=C1.C1=C[C-]=CC=C[C-]=C1.[U+4]

> <PUBCHEM_CACTVS_TPSA>
0

> <PUBCHEM_MONOISOTOPIC_WEIGHT>
442.14469

> <PUBCHEM_TOTAL_CHARGE>
0

> <PUBCHEM_HEAVY_ATOM_COUNT>
17

> <PUBCHEM_ATOM_DEF_STEREO_COUNT>
0

> <PUBCHEM_ATOM_UDEF_STEREO_COUNT>
0

> <PUBCHEM_BOND_DEF_STEREO_COUNT>
4

> <PUBCHEM_BOND_UDEF_STEREO_COUNT>
0

> <PUBCHEM_ISOTOPIC_ATOM_COUNT>
0

> <PUBCHEM_COMPONENT_COUNT>
3

> <PUBCHEM_CACTVS_TAUTO_COUNT>
-1

> <PUBCHEM_NONSTANDARDBOND>
1  2  6
1  3  6
1  4  6

> <PUBCHEM_COORDINATE_TYPE>
1
5
255

$$$$
