14815
  -OEChem-08152606492D

  8  6  0     0  0  0  0  0  0999 V2000
    0.8660    0.5000    0.0000 U   0  2  0  0  0  0  0  0  0  0  0  0
    0.8660    3.8660    0.0000 S   0  0  0  0  0  0  0  0  0  0  0  0
    0.0000    3.3660    0.0000 O   0  5  0  0  0  0  0  0  0  0  0  0
    0.3660    4.7321    0.0000 O   0  5  0  0  0  0  0  0  0  0  0  0
    1.7321    4.3660    0.0000 O   0  0  0  0  0  0  0  0  0  0  0  0
    1.3660    3.0000    0.0000 O   0  0  0  0  0  0  0  0  0  0  0  0
    1.7321    1.0000    0.0000 O   0  0  0  0  0  0  0  0  0  0  0  0
    0.0000    0.0000    0.0000 O   0  0  0  0  0  0  0  0  0  0  0  0
  1  7  2  0  0  0  0
  1  8  2  0  0  0  0
  2  3  1  0  0  0  0
  2  4  1  0  0  0  0
  2  5  2  0  0  0  0
  2  6  2  0  0  0  0
M  CHG  3   1   2   3  -1   4  -1
M  END
> <PUBCHEM_COMPOUND_CID>
14815

> <PUBCHEM_COMPOUND_CANONICALIZED>
1

> <PUBCHEM_CACTVS_COMPLEXITY>
80.5

> <PUBCHEM_CACTVS_HBOND_ACCEPTOR>
6

> <PUBCHEM_CACTVS_HBOND_DONOR>
0

> <PUBCHEM_CACTVS_ROTATABLE_BOND>
0

> <PUBCHEM_CACTVS_SUBSKEYS>
AAADcQAAOABAAAAAAAAAAAAAIAAAAAAAAAAAAAAAAAAAAAAAAAAAAAAAAAAAAAAAAAAAAAAAAAAAAAAAADAAAAAAAAAAAAAAAAAAAAAAAAAAAAAAAAAAAAAAAAAAAAAAAAAAAAAAAAAAAAAAAAAAAAAAAA==

> <PUBCHEM_IUPAC_OPENEYE_NAME>
dioxouranium(2+) sulfate

> <PUBCHEM_IUPAC_CAS_NAME>
dioxouranium(2+) sulfate

> <PUBCHEM_IUPAC_NAME_MARKUP>
dioxouranium(2+) sulfate

> <PUBCHEM_IUPAC_NAME>
dioxouranium(2+) sulfate

> <PUBCHEM_IUPAC_SYSTEMATIC_NAME>
bis(oxidanylidene)uranium(2+) sulfate

> <PUBCHEM_IUPAC_TRADITIONAL_NAME>
diketouranium(2+) sulfate

> <PUBCHEM_IUPAC_INCHI>
InChI=1S/H2O4S.2O.U/c1-5(2,3)4;;;/h(H2,1,2,3,4);;;/q;;;+2/p-2

> <PUBCHEM_IUPAC_INCHIKEY>
XEZIPWHQHLVFHG-UHFFFAOYSA-L

> <PUBCHEM_EXACT_MASS>
365.99235

> <PUBCHEM_MOLECULAR_FORMULA>
O6SU

> <PUBCHEM_MOLECULAR_WEIGHT>
366.09

> <PUBCHEM_SMILES>
[O-]S(=O)(=O)[O-].O=[U+2]=O

> <PUBCHEM_CONNECTIVITY_SMILES>
[O-]S(=O)(=O)[O-].O=[U+2]=O

> <PUBCHEM_CACTVS_TPSA>
123

> <PUBCHEM_MONOISOTOPIC_WEIGHT>
365.99235

> <PUBCHEM_TOTAL_CHARGE>
0

> <PUBCHEM_HEAVY_ATOM_COUNT>
8

> <PUBCHEM_ATOM_DEF_STEREO_COUNT>
0

> <PUBCHEM_ATOM_UDEF_STEREO_COUNT>
0

> <PUBCHEM_BOND_DEF_STEREO_COUNT>
0

> <PUBCHEM_BOND_UDEF_STEREO_COUNT>
0

> <PUBCHEM_ISOTOPIC_ATOM_COUNT>
0

> <PUBCHEM_COMPONENT_COUNT>
2

> <PUBCHEM_CACTVS_TAUTO_COUNT>
-1

> <PUBCHEM_COORDINATE_TYPE>
1
5
255

$$$$
