92043144
  -OEChem-08152606572D

 11  8  0     0  0  0  0  0  0999 V2000
    0.8660    2.5000    0.0000 U   0  2  0  0  0  0  0  0  0  0  0  0
    5.4641    1.5000    0.0000 O   0  5  0  0  0  0  0  0  0  0  0  0
    3.7321    1.5000    0.0000 O   0  5  0  0  0  0  0  0  0  0  0  0
    5.4641    5.0000    0.0000 O   0  5  0  0  0  0  0  0  0  0  0  0
    3.7321    5.0000    0.0000 O   0  5  0  0  0  0  0  0  0  0  0  0
    4.5981    0.0000    0.0000 O   0  0  0  0  0  0  0  0  0  0  0  0
    4.5981    3.5000    0.0000 O   0  0  0  0  0  0  0  0  0  0  0  0
    1.7321    3.0000    0.0000 O   0  0  0  0  0  0  0  0  0  0  0  0
    0.0000    2.0000    0.0000 O   0  0  0  0  0  0  0  0  0  0  0  0
    4.5981    1.0000    0.0000 N   0  3  0  0  0  0  0  0  0  0  0  0
    4.5981    4.5000    0.0000 N   0  3  0  0  0  0  0  0  0  0  0  0
  1  8  2  0  0  0  0
  1  9  2  0  0  0  0
  2 10  1  0  0  0  0
  3 10  1  0  0  0  0
  4 11  1  0  0  0  0
  5 11  1  0  0  0  0
  6 10  2  0  0  0  0
  7 11  2  0  0  0  0
M  CHG  7   1   2   2  -1   3  -1   4  -1   5  -1  10   1  11   1
M  END
> <PUBCHEM_COMPOUND_CID>
92043144

> <PUBCHEM_COMPOUND_CANONICALIZED>
1

> <PUBCHEM_CACTVS_COMPLEXITY>
37

> <PUBCHEM_CACTVS_HBOND_ACCEPTOR>
8

> <PUBCHEM_CACTVS_HBOND_DONOR>
0

> <PUBCHEM_CACTVS_ROTATABLE_BOND>
0

> <PUBCHEM_CACTVS_SUBSKEYS>
AAADcQADPAAAAAAAAAAAAAAAIAAAAAAAAAAAAAAAAAAAAAAAAAAAAAAEAAAAAAAAAAAAAAAAQAABAAAAAQAAAAAAAAAAAAAAAAAAAAAAAAAAAAAAAAAAAAAAAAAAAAAAAAAAAAAAAAAAAAAAAAAAAAAAAA==

> <PUBCHEM_IUPAC_OPENEYE_NAME>
dioxouranium(2+) dinitrate

> <PUBCHEM_IUPAC_CAS_NAME>
dioxouranium(2+) dinitrate

> <PUBCHEM_IUPAC_NAME_MARKUP>
dioxouranium(2+) dinitrate

> <PUBCHEM_IUPAC_NAME>
dioxouranium(2+) dinitrate

> <PUBCHEM_IUPAC_SYSTEMATIC_NAME>
bis(oxidanylidene)uranium(2+) dinitrate

> <PUBCHEM_IUPAC_TRADITIONAL_NAME>
diketouranium(2+) dinitrate

> <PUBCHEM_IUPAC_INCHI>
InChI=1S/2NO3.2O.U/c2*2-1(3)4;;;/q2*-1;;;+2

> <PUBCHEM_IUPAC_INCHIKEY>
ZYEWBKAZYICUMJ-UHFFFAOYSA-N

> <PUBCHEM_EXACT_MASS>
394.01625

> <PUBCHEM_MOLECULAR_FORMULA>
N2O8U

> <PUBCHEM_MOLECULAR_WEIGHT>
394.04

> <PUBCHEM_SMILES>
[N+](=O)([O-])[O-].[N+](=O)([O-])[O-].O=[U+2]=O

> <PUBCHEM_CONNECTIVITY_SMILES>
[N+](=O)([O-])[O-].[N+](=O)([O-])[O-].O=[U+2]=O

> <PUBCHEM_CACTVS_TPSA>
160

> <PUBCHEM_MONOISOTOPIC_WEIGHT>
394.01625

> <PUBCHEM_TOTAL_CHARGE>
0

> <PUBCHEM_HEAVY_ATOM_COUNT>
11

> <PUBCHEM_ATOM_DEF_STEREO_COUNT>
0

> <PUBCHEM_ATOM_UDEF_STEREO_COUNT>
0

> <PUBCHEM_BOND_DEF_STEREO_COUNT>
0

> <PUBCHEM_BOND_UDEF_STEREO_COUNT>
0

> <PUBCHEM_ISOTOPIC_ATOM_COUNT>
0

> <PUBCHEM_COMPONENT_COUNT>
3

> <PUBCHEM_CACTVS_TAUTO_COUNT>
-1

> <PUBCHEM_COORDINATE_TYPE>
1
5
255

$$$$
