61461
  -OEChem-08152606312D

  5  4  0     0  0  0  0  0  0999 V2000
    2.0000    0.0000    0.0000 U   0  0  0  0  0  0  0  0  0  0  0  0
    2.0000    1.0000    0.0000 F   0  0  0  0  0  0  0  0  0  0  0  0
    2.0000   -1.0000    0.0000 F   0  0  0  0  0  0  0  0  0  0  0  0
    2.8660   -0.5000    0.0000 F   0  0  0  0  0  0  0  0  0  0  0  0
    2.8660    0.5000    0.0000 F   0  0  0  0  0  0  0  0  0  0  0  0
  1  2  1  0  0  0  0
  1  3  1  0  0  0  0
  1  4  1  0  0  0  0
  1  5  1  0  0  0  0
M  END
> <PUBCHEM_COMPOUND_CID>
61461

> <PUBCHEM_COMPOUND_CANONICALIZED>
1

> <PUBCHEM_CACTVS_COMPLEXITY>
19.1

> <PUBCHEM_CACTVS_HBOND_ACCEPTOR>
4

> <PUBCHEM_CACTVS_HBOND_DONOR>
0

> <PUBCHEM_CACTVS_ROTATABLE_BOND>
0

> <PUBCHEM_CACTVS_SUBSKEYS>
AAADcQAAAcAAAAAAAAAAAAAAIAAAAAAAAAAAAAAAAAAAAAAAAAAAAAAAAAAAAAAAAAAAAAAAAAAAAAAAAAAAAAAAAAAAAAAAAAAAAAAAAAAAAAAAAAAAAAAAAAAAAAAAAAAAAAAAAAAAAAAAAAAAAAAAAA==

> <PUBCHEM_IUPAC_OPENEYE_NAME>
tetrafluorouranium

> <PUBCHEM_IUPAC_CAS_NAME>
tetrafluorouranium

> <PUBCHEM_IUPAC_NAME_MARKUP>
tetrafluorouranium

> <PUBCHEM_IUPAC_NAME>
tetrafluorouranium

> <PUBCHEM_IUPAC_SYSTEMATIC_NAME>
tetrakis(fluoranyl)uranium

> <PUBCHEM_IUPAC_TRADITIONAL_NAME>
tetrafluorouranium

> <PUBCHEM_IUPAC_INCHI>
InChI=1S/4FH.U/h4*1H;/q;;;;+4/p-4

> <PUBCHEM_IUPAC_INCHIKEY>
MZFRHHGRNOIMLW-UHFFFAOYSA-J

> <PUBCHEM_EXACT_MASS>
314.04440

> <PUBCHEM_MOLECULAR_FORMULA>
F4U

> <PUBCHEM_MOLECULAR_WEIGHT>
314.0225

> <PUBCHEM_SMILES>
F[U](F)(F)F

> <PUBCHEM_CONNECTIVITY_SMILES>
F[U](F)(F)F

> <PUBCHEM_CACTVS_TPSA>
0

> <PUBCHEM_MONOISOTOPIC_WEIGHT>
314.04440

> <PUBCHEM_TOTAL_CHARGE>
0

> <PUBCHEM_HEAVY_ATOM_COUNT>
5

> <PUBCHEM_ATOM_DEF_STEREO_COUNT>
0

> <PUBCHEM_ATOM_UDEF_STEREO_COUNT>
0

> <PUBCHEM_BOND_DEF_STEREO_COUNT>
0

> <PUBCHEM_BOND_UDEF_STEREO_COUNT>
0

> <PUBCHEM_ISOTOPIC_ATOM_COUNT>
0

> <PUBCHEM_COMPONENT_COUNT>
1

> <PUBCHEM_CACTVS_TAUTO_COUNT>
-1

> <PUBCHEM_COORDINATE_TYPE>
1
5
255

$$$$
