21226249
  -OEChem-08152605462D

 17 14  0     0  0  0  0  0  0999 V2000
    4.5981    0.5000    0.0000 U   0  2  0  0  0  0  0  0  0  0  0  0
    3.7321    5.1200    0.0000 O   0  5  0  0  0  0  0  0  0  0  0  0
    0.0000    3.6200    0.0000 O   0  5  0  0  0  0  0  0  0  0  0  0
    5.4641    5.1200    0.0000 O   0  0  0  0  0  0  0  0  0  0  0  0
    1.7321    3.6200    0.0000 O   0  0  0  0  0  0  0  0  0  0  0  0
    5.4641    1.0000    0.0000 O   0  0  0  0  0  0  0  0  0  0  0  0
    3.7321    0.0000    0.0000 O   0  0  0  0  0  0  0  0  0  0  0  0
    4.5981    3.6200    0.0000 C   0  0  0  0  0  0  0  0  0  0  0  0
    0.8660    2.1200    0.0000 C   0  0  0  0  0  0  0  0  0  0  0  0
    4.5981    4.6200    0.0000 C   0  0  0  0  0  0  0  0  0  0  0  0
    0.8660    3.1200    0.0000 C   0  0  0  0  0  0  0  0  0  0  0  0
    3.9781    3.6200    0.0000 H   0  0  0  0  0  0  0  0  0  0  0  0
    4.5981    3.0000    0.0000 H   0  0  0  0  0  0  0  0  0  0  0  0
    5.2181    3.6200    0.0000 H   0  0  0  0  0  0  0  0  0  0  0  0
    0.2460    2.1200    0.0000 H   0  0  0  0  0  0  0  0  0  0  0  0
    0.8660    1.5000    0.0000 H   0  0  0  0  0  0  0  0  0  0  0  0
    1.4860    2.1200    0.0000 H   0  0  0  0  0  0  0  0  0  0  0  0
  1  6  2  0  0  0  0
  1  7  2  0  0  0  0
  2 10  1  0  0  0  0
  3 11  1  0  0  0  0
  4 10  2  0  0  0  0
  5 11  2  0  0  0  0
  8 10  1  0  0  0  0
  8 12  1  0  0  0  0
  8 13  1  0  0  0  0
  8 14  1  0  0  0  0
  9 11  1  0  0  0  0
  9 15  1  0  0  0  0
  9 16  1  0  0  0  0
  9 17  1  0  0  0  0
M  CHG  3   1   2   2  -1   3  -1
M  END
> <PUBCHEM_COMPOUND_CID>
21226249

> <PUBCHEM_COMPOUND_CANONICALIZED>
1

> <PUBCHEM_CACTVS_COMPLEXITY>
43.8

> <PUBCHEM_CACTVS_HBOND_ACCEPTOR>
6

> <PUBCHEM_CACTVS_HBOND_DONOR>
0

> <PUBCHEM_CACTVS_ROTATABLE_BOND>
0

> <PUBCHEM_CACTVS_SUBSKEYS>
AAADcYBgOAAAAAAAAAAAAAAAIAAAAAAAAAAAAAAAAAAAAAAAAAAAGgAAAAAAAACAgAACCAAAAAAIAACQCAAAAAAAAAAAAAAAAAAAAAAAAAAAAAAAAAAAAAAAAAAAAAAAAAAAAAAAAAAAAAAAAAAAAAAAAA==

> <PUBCHEM_IUPAC_OPENEYE_NAME>
dioxouranium(2+) diacetate

> <PUBCHEM_IUPAC_CAS_NAME>
dioxouranium(2+) diacetate

> <PUBCHEM_IUPAC_NAME_MARKUP>
dioxouranium(2+) diacetate

> <PUBCHEM_IUPAC_NAME>
dioxouranium(2+) diacetate

> <PUBCHEM_IUPAC_SYSTEMATIC_NAME>
bis(oxidanylidene)uranium(2+) diethanoate

> <PUBCHEM_IUPAC_TRADITIONAL_NAME>
diketouranium(2+) diacetate

> <PUBCHEM_IUPAC_INCHI>
InChI=1S/2C2H4O2.2O.U/c2*1-2(3)4;;;/h2*1H3,(H,3,4);;;/q;;;;+2/p-2

> <PUBCHEM_IUPAC_INCHIKEY>
MCRZASGCXKHFTN-UHFFFAOYSA-L

> <PUBCHEM_EXACT_MASS>
388.06722

> <PUBCHEM_MOLECULAR_FORMULA>
C4H6O6U

> <PUBCHEM_MOLECULAR_WEIGHT>
388.12

> <PUBCHEM_SMILES>
CC(=O)[O-].CC(=O)[O-].O=[U+2]=O

> <PUBCHEM_CONNECTIVITY_SMILES>
CC(=O)[O-].CC(=O)[O-].O=[U+2]=O

> <PUBCHEM_CACTVS_TPSA>
114

> <PUBCHEM_MONOISOTOPIC_WEIGHT>
388.06722

> <PUBCHEM_TOTAL_CHARGE>
0

> <PUBCHEM_HEAVY_ATOM_COUNT>
11

> <PUBCHEM_ATOM_DEF_STEREO_COUNT>
0

> <PUBCHEM_ATOM_UDEF_STEREO_COUNT>
0

> <PUBCHEM_BOND_DEF_STEREO_COUNT>
0

> <PUBCHEM_BOND_UDEF_STEREO_COUNT>
0

> <PUBCHEM_ISOTOPIC_ATOM_COUNT>
0

> <PUBCHEM_COMPONENT_COUNT>
3

> <PUBCHEM_CACTVS_TAUTO_COUNT>
-1

> <PUBCHEM_COORDINATE_TYPE>
1
5
255

$$$$
