82795
  -OEChem-08152605032D

  3  2  0     0  0  0  0  0  0999 V2000
    2.8660    0.0000    0.0000 U   0  0  0  0  0  0  0  0  0  0  0  0
    3.7321    0.5000    0.0000 B   0  0  0  0  0  0  0  0  0  0  0  0
    2.0000   -0.5000    0.0000 B   0  0  0  0  0  0  0  0  0  0  0  0
  1  2  3  0  0  0  0
  1  3  3  0  0  0  0
M  END
> <PUBCHEM_COMPOUND_CID>
82795

> <PUBCHEM_COMPOUND_CANONICALIZED>
1

> <PUBCHEM_CACTVS_COMPLEXITY>
72.2

> <PUBCHEM_CACTVS_HBOND_ACCEPTOR>
0

> <PUBCHEM_CACTVS_HBOND_DONOR>
0

> <PUBCHEM_CACTVS_ROTATABLE_BOND>
0

> <PUBCHEM_CACTVS_SUBSKEYS>
AAADcQMAAAAAAAAAAAAAAAAAIAAAAAAAAAAAAAAAAAAAAAAAAAAAAAAAAAAAAAAAAAAAAAAAAAAAAAAAAAAAAAAAAAAAAAAAAAAAAAAAAAAAAAAAAAAAAAAAAAAAAAAAAAAAAAAAAAAAAAAAAAAAAAAAAA==

> <PUBCHEM_IUPAC_OPENEYE_NAME>
bis(boranylidyne)uranium

> <PUBCHEM_IUPAC_CAS_NAME>
bis(boranylidyne)uranium

> <PUBCHEM_IUPAC_NAME_MARKUP>
bis(boranylidyne)uranium

> <PUBCHEM_IUPAC_NAME>
bis(boranylidyne)uranium

> <PUBCHEM_IUPAC_SYSTEMATIC_NAME>
bis(boranylidyne)uranium

> <PUBCHEM_IUPAC_TRADITIONAL_NAME>
di(borylidyne)uranium

> <PUBCHEM_IUPAC_INCHI>
InChI=1S/2B.U

> <PUBCHEM_IUPAC_INCHIKEY>
QPXOIGGWJBMJIH-UHFFFAOYSA-N

> <PUBCHEM_EXACT_MASS>
260.06940

> <PUBCHEM_MOLECULAR_FORMULA>
B2U

> <PUBCHEM_MOLECULAR_WEIGHT>
259.66

> <PUBCHEM_SMILES>
B#[U]#B

> <PUBCHEM_CONNECTIVITY_SMILES>
B#[U]#B

> <PUBCHEM_CACTVS_TPSA>
0

> <PUBCHEM_MONOISOTOPIC_WEIGHT>
260.06940

> <PUBCHEM_TOTAL_CHARGE>
0

> <PUBCHEM_HEAVY_ATOM_COUNT>
3

> <PUBCHEM_ATOM_DEF_STEREO_COUNT>
0

> <PUBCHEM_ATOM_UDEF_STEREO_COUNT>
0

> <PUBCHEM_BOND_DEF_STEREO_COUNT>
0

> <PUBCHEM_BOND_UDEF_STEREO_COUNT>
0

> <PUBCHEM_ISOTOPIC_ATOM_COUNT>
0

> <PUBCHEM_COMPONENT_COUNT>
1

> <PUBCHEM_CACTVS_TAUTO_COUNT>
-1

> <PUBCHEM_COORDINATE_TYPE>
1
5
255

$$$$
