6432077
  -OEChem-08152605152D

  5  2  0     0  0  0  0  0  0999 V2000
    2.8660    0.0000    0.0000 U   0  2  0  0  0  0  0  0  0  0  0  0
    2.0000   -0.5000    0.0000 F   0  5  0  0  0  0  0  0  0  0  0  0
    2.3660    0.8660    0.0000 F   0  5  0  0  0  0  0  0  0  0  0  0
    3.7320    0.5000    0.0000 O   0  0  0  0  0  0  0  0  0  0  0  0
    3.3660   -0.8660    0.0000 O   0  0  0  0  0  0  0  0  0  0  0  0
  1  4  2  0  0  0  0
  1  5  2  0  0  0  0
M  CHG  3   1   2   2  -1   3  -1
M  END
> <PUBCHEM_COMPOUND_CID>
6432077

> <PUBCHEM_COMPOUND_CANONICALIZED>
1

> <PUBCHEM_CACTVS_COMPLEXITY>
18.3

> <PUBCHEM_CACTVS_HBOND_ACCEPTOR>
4

> <PUBCHEM_CACTVS_HBOND_DONOR>
0

> <PUBCHEM_CACTVS_ROTATABLE_BOND>
0

> <PUBCHEM_CACTVS_SUBSKEYS>
AAADcQAAMYAAAAAAAAAAAAAAIAAAAAAAAAAAAAAAAAAAAAAAAAAAAAAAAAAAAAAAAAAAAAAAAAAAAAAAAAAAAAAAAAAAAAAAAAAAAAAAAAAAAAAAAAAAAAAAAAAAAAAAAAAAAAAAAAAAAAAAAAAAAAAAAA==

> <PUBCHEM_IUPAC_OPENEYE_NAME>
dioxouranium(2+) difluoride

> <PUBCHEM_IUPAC_CAS_NAME>
dioxouranium(2+) difluoride

> <PUBCHEM_IUPAC_NAME_MARKUP>
dioxouranium(2+) difluoride

> <PUBCHEM_IUPAC_NAME>
dioxouranium(2+) difluoride

> <PUBCHEM_IUPAC_SYSTEMATIC_NAME>
bis(oxidanylidene)uranium(2+) difluoride

> <PUBCHEM_IUPAC_TRADITIONAL_NAME>
diketouranium(2+) difluoride

> <PUBCHEM_IUPAC_INCHI>
InChI=1S/2FH.2O.U/h2*1H;;;/q;;;;+2/p-2

> <PUBCHEM_IUPAC_INCHIKEY>
KCKICANVXIVOLK-UHFFFAOYSA-L

> <PUBCHEM_EXACT_MASS>
308.03742

> <PUBCHEM_MOLECULAR_FORMULA>
F2O2U

> <PUBCHEM_MOLECULAR_WEIGHT>
308.025

> <PUBCHEM_SMILES>
O=[U+2]=O.[F-].[F-]

> <PUBCHEM_CONNECTIVITY_SMILES>
O=[U+2]=O.[F-].[F-]

> <PUBCHEM_CACTVS_TPSA>
34.1

> <PUBCHEM_MONOISOTOPIC_WEIGHT>
308.03742

> <PUBCHEM_TOTAL_CHARGE>
0

> <PUBCHEM_HEAVY_ATOM_COUNT>
5

> <PUBCHEM_ATOM_DEF_STEREO_COUNT>
0

> <PUBCHEM_ATOM_UDEF_STEREO_COUNT>
0

> <PUBCHEM_BOND_DEF_STEREO_COUNT>
0

> <PUBCHEM_BOND_UDEF_STEREO_COUNT>
0

> <PUBCHEM_ISOTOPIC_ATOM_COUNT>
0

> <PUBCHEM_COMPONENT_COUNT>
3

> <PUBCHEM_CACTVS_TAUTO_COUNT>
-1

> <PUBCHEM_COORDINATE_TYPE>
1
5
255

$$$$
