90570
  -OEChem-08152605452D

  2  1  0     0  0  0  0  0  0999 V2000
    3.0000    0.0000    0.0000 V   0  0  0  0  0  0  0  0  0  0  0  0
    2.0000    0.0000    0.0000 N   0  0  0  0  0  0  0  0  0  0  0  0
  1  2  3  0  0  0  0
M  END
> <PUBCHEM_COMPOUND_CID>
90570

> <PUBCHEM_COMPOUND_CANONICALIZED>
1

> <PUBCHEM_CACTVS_COMPLEXITY>
10

> <PUBCHEM_CACTVS_HBOND_ACCEPTOR>
1

> <PUBCHEM_CACTVS_HBOND_DONOR>
0

> <PUBCHEM_CACTVS_ROTATABLE_BOND>
0

> <PUBCHEM_CACTVS_SUBSKEYS>
AAADcQACAAAAAAEAAAAAAAAAAAAAAAAAAAAAAAAAAAAAAAAAAAAAAAAAAAAAAAAAAAAAAAAAAAAAAAAAAAAAAAAAAAAAAAAAAAAAAAAAAAAAAAAAAAAAAAAAAAAAAAAAAAAAAAAAAAAAAAAAAAAAAAAAAA==

> <PUBCHEM_IUPAC_OPENEYE_NAME>
nitridovanadium

> <PUBCHEM_IUPAC_CAS_NAME>
nitrilovanadium

> <PUBCHEM_IUPAC_NAME_MARKUP>
azanylidynevanadium

> <PUBCHEM_IUPAC_NAME>
azanylidynevanadium

> <PUBCHEM_IUPAC_SYSTEMATIC_NAME>
azanylidynevanadium

> <PUBCHEM_IUPAC_TRADITIONAL_NAME>
nitrilovanadium

> <PUBCHEM_IUPAC_INCHI>
InChI=1S/N.V

> <PUBCHEM_IUPAC_INCHIKEY>
SKKMWRVAJNPLFY-UHFFFAOYSA-N

> <PUBCHEM_EXACT_MASS>
64.947032

> <PUBCHEM_MOLECULAR_FORMULA>
NV

> <PUBCHEM_MOLECULAR_WEIGHT>
64.948

> <PUBCHEM_SMILES>
N#[V]

> <PUBCHEM_CONNECTIVITY_SMILES>
N#[V]

> <PUBCHEM_CACTVS_TPSA>
23.8

> <PUBCHEM_MONOISOTOPIC_WEIGHT>
64.947032

> <PUBCHEM_TOTAL_CHARGE>
0

> <PUBCHEM_HEAVY_ATOM_COUNT>
2

> <PUBCHEM_ATOM_DEF_STEREO_COUNT>
0

> <PUBCHEM_ATOM_UDEF_STEREO_COUNT>
0

> <PUBCHEM_BOND_DEF_STEREO_COUNT>
0

> <PUBCHEM_BOND_UDEF_STEREO_COUNT>
0

> <PUBCHEM_ISOTOPIC_ATOM_COUNT>
0

> <PUBCHEM_COMPONENT_COUNT>
1

> <PUBCHEM_CACTVS_TAUTO_COUNT>
-1

> <PUBCHEM_COORDINATE_TYPE>
1
5
255

$$$$
