167567
  -OEChem-08152607212D

 27 20  0     0  0  0  0  0  0999 V2000
    3.7321    5.5981    0.0000 V   0  0  0  0  0  0  0  0  0  0  0  0
    6.8481    0.0000    0.0000 V   0  0  0  0  0  0  0  0  0  0  0  0
    0.8660    5.8481    0.0000 S   0  0  0  0  0  0  0  0  0  0  0  0
    7.0981    3.3660    0.0000 S   0  0  0  0  0  0  0  0  0  0  0  0
    7.0981    7.0981    0.0000 S   0  0  0  0  0  0  0  0  0  0  0  0
    7.0981   10.8301    0.0000 S   0  0  0  0  0  0  0  0  0  0  0  0
   10.8301    5.8481    0.0000 S   0  0  0  0  0  0  0  0  0  0  0  0
    0.0000    5.3481    0.0000 O   0  5  0  0  0  0  0  0  0  0  0  0
    0.3660    6.7141    0.0000 O   0  5  0  0  0  0  0  0  0  0  0  0
    6.2321    2.8660    0.0000 O   0  5  0  0  0  0  0  0  0  0  0  0
    6.5981    4.2321    0.0000 O   0  5  0  0  0  0  0  0  0  0  0  0
    6.2321    6.5981    0.0000 O   0  5  0  0  0  0  0  0  0  0  0  0
    6.5981    7.9641    0.0000 O   0  5  0  0  0  0  0  0  0  0  0  0
    6.2321   10.3301    0.0000 O   0  5  0  0  0  0  0  0  0  0  0  0
    6.5981   11.6962    0.0000 O   0  5  0  0  0  0  0  0  0  0  0  0
    9.9641    5.3481    0.0000 O   0  5  0  0  0  0  0  0  0  0  0  0
   10.3301    6.7141    0.0000 O   0  5  0  0  0  0  0  0  0  0  0  0
    1.7321    6.3481    0.0000 O   0  0  0  0  0  0  0  0  0  0  0  0
    1.3660    4.9821    0.0000 O   0  0  0  0  0  0  0  0  0  0  0  0
    7.9641    3.8660    0.0000 O   0  0  0  0  0  0  0  0  0  0  0  0
    7.5981    2.5000    0.0000 O   0  0  0  0  0  0  0  0  0  0  0  0
    7.9641    7.5981    0.0000 O   0  0  0  0  0  0  0  0  0  0  0  0
    7.5981    6.2321    0.0000 O   0  0  0  0  0  0  0  0  0  0  0  0
    7.9641   11.3301    0.0000 O   0  0  0  0  0  0  0  0  0  0  0  0
    7.5981    9.9641    0.0000 O   0  0  0  0  0  0  0  0  0  0  0  0
   11.6962    6.3481    0.0000 O   0  0  0  0  0  0  0  0  0  0  0  0
   11.3301    4.9821    0.0000 O   0  0  0  0  0  0  0  0  0  0  0  0
  3  8  1  0  0  0  0
  3  9  1  0  0  0  0
  3 18  2  0  0  0  0
  3 19  2  0  0  0  0
  4 10  1  0  0  0  0
  4 11  1  0  0  0  0
  4 20  2  0  0  0  0
  4 21  2  0  0  0  0
  5 12  1  0  0  0  0
  5 13  1  0  0  0  0
  5 22  2  0  0  0  0
  5 23  2  0  0  0  0
  6 14  1  0  0  0  0
  6 15  1  0  0  0  0
  6 24  2  0  0  0  0
  6 25  2  0  0  0  0
  7 16  1  0  0  0  0
  7 17  1  0  0  0  0
  7 26  2  0  0  0  0
  7 27  2  0  0  0  0
M  CHG  8   8  -1   9  -1  10  -1  11  -1  12  -1  13  -1  14  -1  15  -1
M  CHG  2  16  -1  17  -1
M  END
> <PUBCHEM_COMPOUND_CID>
167567

> <PUBCHEM_COMPOUND_CANONICALIZED>
1

> <PUBCHEM_CACTVS_COMPLEXITY>
62.2

> <PUBCHEM_CACTVS_HBOND_ACCEPTOR>
20

> <PUBCHEM_CACTVS_HBOND_DONOR>
0

> <PUBCHEM_CACTVS_ROTATABLE_BOND>
0

> <PUBCHEM_CACTVS_SUBSKEYS>
AAADcQAAPgBwAAEAAAAAAAAAAAAAAAAAAAAAAAAAAAAAAAAAAAAAAAAAAAAAAAAAAAAAAAAAAAAAAAAAADAAAAAAAAAAAAAAAAAAAAAAAAAAAAAAAAAAAAAAAAAAAAAAAAAAAAAAAAAAAAAAAAAAAAAAAA==

> <PUBCHEM_IUPAC_OPENEYE_NAME>
bis(vanadium);pentasulfate

> <PUBCHEM_IUPAC_CAS_NAME>
bis(vanadium);pentasulfate

> <PUBCHEM_IUPAC_NAME_MARKUP>
bis(vanadium);pentasulfate

> <PUBCHEM_IUPAC_NAME>
bis(vanadium);pentasulfate

> <PUBCHEM_IUPAC_SYSTEMATIC_NAME>
bis(vanadium);pentasulfate

> <PUBCHEM_IUPAC_TRADITIONAL_NAME>
bis(vanadium);pentasulfate

> <PUBCHEM_IUPAC_INCHI>
InChI=1S/5H2O4S.2V/c5*1-5(2,3)4;;/h5*(H2,1,2,3,4);;/p-10

> <PUBCHEM_IUPAC_INCHIKEY>
MBOJJEQVSOCDGA-UHFFFAOYSA-D

> <PUBCHEM_EXACT_MASS>
581.646564

> <PUBCHEM_MOLECULAR_FORMULA>
O20S5V2-10

> <PUBCHEM_MOLECULAR_WEIGHT>
582.2

> <PUBCHEM_SMILES>
[O-]S(=O)(=O)[O-].[O-]S(=O)(=O)[O-].[O-]S(=O)(=O)[O-].[O-]S(=O)(=O)[O-].[O-]S(=O)(=O)[O-].[V].[V]

> <PUBCHEM_CONNECTIVITY_SMILES>
[O-]S(=O)(=O)[O-].[O-]S(=O)(=O)[O-].[O-]S(=O)(=O)[O-].[O-]S(=O)(=O)[O-].[O-]S(=O)(=O)[O-].[V].[V]

> <PUBCHEM_CACTVS_TPSA>
443

> <PUBCHEM_MONOISOTOPIC_WEIGHT>
581.646564

> <PUBCHEM_TOTAL_CHARGE>
-10

> <PUBCHEM_HEAVY_ATOM_COUNT>
27

> <PUBCHEM_ATOM_DEF_STEREO_COUNT>
0

> <PUBCHEM_ATOM_UDEF_STEREO_COUNT>
0

> <PUBCHEM_BOND_DEF_STEREO_COUNT>
0

> <PUBCHEM_BOND_UDEF_STEREO_COUNT>
0

> <PUBCHEM_ISOTOPIC_ATOM_COUNT>
0

> <PUBCHEM_COMPONENT_COUNT>
7

> <PUBCHEM_CACTVS_TAUTO_COUNT>
-1

> <PUBCHEM_COORDINATE_TYPE>
1
5
255

$$$$
