518710
  -OEChem-08152605112D

  5  4  0     0  0  0  0  0  0999 V2000
    4.5981    0.2500    0.0000 V   0  0  0  0  0  0  0  0  0  0  0  0
    2.8660    0.2500    0.0000 V   0  0  0  0  0  0  0  0  0  0  0  0
    3.7321   -0.2500    0.0000 O   0  0  0  0  0  0  0  0  0  0  0  0
    5.4641   -0.2500    0.0000 O   0  0  0  0  0  0  0  0  0  0  0  0
    2.0000   -0.2500    0.0000 O   0  0  0  0  0  0  0  0  0  0  0  0
  1  3  1  0  0  0  0
  1  4  2  0  0  0  0
  2  3  1  0  0  0  0
  2  5  2  0  0  0  0
M  END
> <PUBCHEM_COMPOUND_CID>
518710

> <PUBCHEM_COMPOUND_CANONICALIZED>
1

> <PUBCHEM_CACTVS_COMPLEXITY>
34.2

> <PUBCHEM_CACTVS_HBOND_ACCEPTOR>
3

> <PUBCHEM_CACTVS_HBOND_DONOR>
0

> <PUBCHEM_CACTVS_ROTATABLE_BOND>
0

> <PUBCHEM_CACTVS_SUBSKEYS>
AAADcQAAMAAAAAEAAAAAAAAAAAAAAAAAAAAAAAAAAAAAAAAAAAAAAAAAAAAAAAAAAAAAAAAAAAAAAAAAAAAAAAAAAAAAAAAAAAAAAAAAAAAAAAAAAAAAAAAAAAAAAAAAAAAAAAAAAAAAAAAAAAAAAAAAAA==

> <PUBCHEM_IUPAC_OPENEYE_NAME>
oxo(oxovanadiooxy)vanadium

> <PUBCHEM_IUPAC_CAS_NAME>
oxo(oxovanadiooxy)vanadium

> <PUBCHEM_IUPAC_NAME_MARKUP>
oxo(oxovanadiooxy)vanadium

> <PUBCHEM_IUPAC_NAME>
oxo(oxovanadiooxy)vanadium

> <PUBCHEM_IUPAC_SYSTEMATIC_NAME>
oxidanylidene(oxidanylidenevanadiooxy)vanadium

> <PUBCHEM_IUPAC_TRADITIONAL_NAME>
keto(ketovanadiooxy)vanadium

> <PUBCHEM_IUPAC_INCHI>
InChI=1S/3O.2V

> <PUBCHEM_IUPAC_INCHIKEY>
KFAFTZQGYMGWLU-UHFFFAOYSA-N

> <PUBCHEM_EXACT_MASS>
149.872659

> <PUBCHEM_MOLECULAR_FORMULA>
O3V2

> <PUBCHEM_MOLECULAR_WEIGHT>
149.881

> <PUBCHEM_SMILES>
O=[V]O[V]=O

> <PUBCHEM_CONNECTIVITY_SMILES>
O=[V]O[V]=O

> <PUBCHEM_CACTVS_TPSA>
43.4

> <PUBCHEM_MONOISOTOPIC_WEIGHT>
149.872659

> <PUBCHEM_TOTAL_CHARGE>
0

> <PUBCHEM_HEAVY_ATOM_COUNT>
5

> <PUBCHEM_ATOM_DEF_STEREO_COUNT>
0

> <PUBCHEM_ATOM_UDEF_STEREO_COUNT>
0

> <PUBCHEM_BOND_DEF_STEREO_COUNT>
0

> <PUBCHEM_BOND_UDEF_STEREO_COUNT>
0

> <PUBCHEM_ISOTOPIC_ATOM_COUNT>
0

> <PUBCHEM_COMPONENT_COUNT>
1

> <PUBCHEM_CACTVS_TAUTO_COUNT>
-1

> <PUBCHEM_COORDINATE_TYPE>
1
5
255

$$$$
