24410
  -OEChem-08152606252D

  8  4  0     0  0  0  0  0  0999 V2000
    3.3060   -0.2994    0.0000 V   0  0  0  0  0  0  0  0  0  0  0  0
    2.5989   -1.0065    0.0000 Cl  0  0  0  0  0  0  0  0  0  0  0  0
    2.5989    0.4077    0.0000 Cl  0  0  0  0  0  0  0  0  0  0  0  0
    4.0131   -1.0065    0.0000 Cl  0  0  0  0  0  0  0  0  0  0  0  0
    4.0131    0.4077    0.0000 O   0  0  0  0  0  0  0  0  0  0  0  0
    2.0000   -0.8461    0.0000 H   0  0  0  0  0  0  0  0  0  0  0  0
    2.7593    1.0065    0.0000 H   0  0  0  0  0  0  0  0  0  0  0  0
    4.6120   -0.8461    0.0000 H   0  0  0  0  0  0  0  0  0  0  0  0
  1  5  2  0  0  0  0
  2  6  1  0  0  0  0
  3  7  1  0  0  0  0
  4  8  1  0  0  0  0
M  END
> <PUBCHEM_COMPOUND_CID>
24410

> <PUBCHEM_COMPOUND_CANONICALIZED>
1

> <PUBCHEM_CACTVS_COMPLEXITY>
6.9

> <PUBCHEM_CACTVS_HBOND_ACCEPTOR>
1

> <PUBCHEM_CACTVS_HBOND_DONOR>
3

> <PUBCHEM_CACTVS_ROTATABLE_BOND>
0

> <PUBCHEM_CACTVS_SUBSKEYS>
AAADcQAAIAAGAAEAAAAAAAAAAAAAAAAAAAAAAAAAAAAAAAAAAAAAAAAAAAAAAAAAAAAAAAAAAAAAAAAAAAAAAAAAAAAAAAAAAAAAAAAAAAAAAAAAAAAAAAAAAAAAAAAAAAAAAAAAAAAAAAAAAAAAAAAAAA==

> <PUBCHEM_IUPAC_OPENEYE_NAME>
oxovanadium;trihydrochloride

> <PUBCHEM_IUPAC_CAS_NAME>
oxovanadium;trihydrochloride

> <PUBCHEM_IUPAC_NAME_MARKUP>
oxovanadium;trihydrochloride

> <PUBCHEM_IUPAC_NAME>
oxovanadium;trihydrochloride

> <PUBCHEM_IUPAC_SYSTEMATIC_NAME>
oxidanylidenevanadium;trihydrochloride

> <PUBCHEM_IUPAC_TRADITIONAL_NAME>
ketovanadium;trihydrochloride

> <PUBCHEM_IUPAC_INCHI>
InChI=1S/3ClH.O.V/h3*1H;;

> <PUBCHEM_IUPAC_INCHIKEY>
JNKMSLLEOBTKQY-UHFFFAOYSA-N

> <PUBCHEM_EXACT_MASS>
174.868905

> <PUBCHEM_MOLECULAR_FORMULA>
Cl3H3OV

> <PUBCHEM_MOLECULAR_WEIGHT>
176.32

> <PUBCHEM_SMILES>
O=[V].Cl.Cl.Cl

> <PUBCHEM_CONNECTIVITY_SMILES>
O=[V].Cl.Cl.Cl

> <PUBCHEM_CACTVS_TPSA>
17.1

> <PUBCHEM_MONOISOTOPIC_WEIGHT>
174.868905

> <PUBCHEM_TOTAL_CHARGE>
0

> <PUBCHEM_HEAVY_ATOM_COUNT>
5

> <PUBCHEM_ATOM_DEF_STEREO_COUNT>
0

> <PUBCHEM_ATOM_UDEF_STEREO_COUNT>
0

> <PUBCHEM_BOND_DEF_STEREO_COUNT>
0

> <PUBCHEM_BOND_UDEF_STEREO_COUNT>
0

> <PUBCHEM_ISOTOPIC_ATOM_COUNT>
0

> <PUBCHEM_COMPONENT_COUNT>
4

> <PUBCHEM_CACTVS_TAUTO_COUNT>
-1

> <PUBCHEM_NONSTANDARDBOND>
1  2  6
1  3  6
1  4  6

> <PUBCHEM_COORDINATE_TYPE>
1
5
255

$$$$
