165641
  -OEChem-08152606262D

  6  0  0     0  0  0  0  0  0999 V2000
    5.0000    2.5000    0.0000 V   0  0  0  0  0  0  0  0  0  0  0  0
    0.0000    1.2500    0.0000 F   0  5  0  0  0  0  0  0  0  0  0  0
    0.0000    3.7500    0.0000 F   0  5  0  0  0  0  0  0  0  0  0  0
    2.5000    0.0000    0.0000 F   0  5  0  0  0  0  0  0  0  0  0  0
    2.5000    2.5000    0.0000 F   0  5  0  0  0  0  0  0  0  0  0  0
    2.5000    5.0000    0.0000 F   0  5  0  0  0  0  0  0  0  0  0  0
M  CHG  5   2  -1   3  -1   4  -1   5  -1   6  -1
M  END
> <PUBCHEM_COMPOUND_CID>
165641

> <PUBCHEM_COMPOUND_CANONICALIZED>
1

> <PUBCHEM_CACTVS_COMPLEXITY>
0

> <PUBCHEM_CACTVS_HBOND_ACCEPTOR>
5

> <PUBCHEM_CACTVS_HBOND_DONOR>
0

> <PUBCHEM_CACTVS_ROTATABLE_BOND>
0

> <PUBCHEM_CACTVS_SUBSKEYS>
AAADcQAAAcAAAAEAAAAAAAAAAAAAAAAAAAAAAAAAAAAAAAAAAAAAAAAAAAAAAAAAAAAAAAAAAAAAAAAAAAAAAAAAAAAAAAAAAAAAAAAAAAAAAAAAAAAAAAAAAAAAAAAAAAAAAAAAAAAAAAAAAAAAAAAAAA==

> <PUBCHEM_IUPAC_OPENEYE_NAME>
vanadium pentafluoride

> <PUBCHEM_IUPAC_CAS_NAME>
vanadium pentafluoride

> <PUBCHEM_IUPAC_NAME_MARKUP>
vanadium pentafluoride

> <PUBCHEM_IUPAC_NAME>
vanadium pentafluoride

> <PUBCHEM_IUPAC_SYSTEMATIC_NAME>
vanadium pentafluoride

> <PUBCHEM_IUPAC_TRADITIONAL_NAME>
vanadium pentafluoride

> <PUBCHEM_IUPAC_INCHI>
InChI=1S/5FH.V/h5*1H;/p-5

> <PUBCHEM_IUPAC_INCHIKEY>
LRLCSRVNZCWQRK-UHFFFAOYSA-I

> <PUBCHEM_EXACT_MASS>
145.935973

> <PUBCHEM_MOLECULAR_FORMULA>
F5V-5

> <PUBCHEM_MOLECULAR_WEIGHT>
145.9335

> <PUBCHEM_SMILES>
[F-].[F-].[F-].[F-].[F-].[V]

> <PUBCHEM_CONNECTIVITY_SMILES>
[F-].[F-].[F-].[F-].[F-].[V]

> <PUBCHEM_CACTVS_TPSA>
0

> <PUBCHEM_MONOISOTOPIC_WEIGHT>
145.935973

> <PUBCHEM_TOTAL_CHARGE>
-5

> <PUBCHEM_HEAVY_ATOM_COUNT>
6

> <PUBCHEM_ATOM_DEF_STEREO_COUNT>
0

> <PUBCHEM_ATOM_UDEF_STEREO_COUNT>
0

> <PUBCHEM_BOND_DEF_STEREO_COUNT>
0

> <PUBCHEM_BOND_UDEF_STEREO_COUNT>
0

> <PUBCHEM_ISOTOPIC_ATOM_COUNT>
0

> <PUBCHEM_COMPONENT_COUNT>
6

> <PUBCHEM_CACTVS_TAUTO_COUNT>
-1

> <PUBCHEM_COORDINATE_TYPE>
1
5
255

$$$$
