24411
  -OEChem-08152606352D

  2  1  0     0  0  0  0  0  0999 V2000
    3.0000    0.0000    0.0000 V   0  0  0  0  0  0  0  0  0  0  0  0
    2.0000    0.0000    0.0000 O   0  0  0  0  0  0  0  0  0  0  0  0
  1  2  2  0  0  0  0
M  END
> <PUBCHEM_COMPOUND_CID>
24411

> <PUBCHEM_COMPOUND_CANONICALIZED>
1

> <PUBCHEM_CACTVS_COMPLEXITY>
2

> <PUBCHEM_CACTVS_HBOND_ACCEPTOR>
1

> <PUBCHEM_CACTVS_HBOND_DONOR>
0

> <PUBCHEM_CACTVS_ROTATABLE_BOND>
0

> <PUBCHEM_CACTVS_SUBSKEYS>
AAADcQAAIAAAAAEAAAAAAAAAAAAAAAAAAAAAAAAAAAAAAAAAAAAAAAAAAAAAAAAAAAAAAAAAAAAAAAAAAAAAAAAAAAAAAAAAAAAAAAAAAAAAAAAAAAAAAAAAAAAAAAAAAAAAAAAAAAAAAAAAAAAAAAAAAA==

> <PUBCHEM_IUPAC_OPENEYE_NAME>
oxovanadium

> <PUBCHEM_IUPAC_CAS_NAME>
oxovanadium

> <PUBCHEM_IUPAC_NAME_MARKUP>
oxovanadium

> <PUBCHEM_IUPAC_NAME>
oxovanadium

> <PUBCHEM_IUPAC_SYSTEMATIC_NAME>
oxidanylidenevanadium

> <PUBCHEM_IUPAC_TRADITIONAL_NAME>
ketovanadium

> <PUBCHEM_IUPAC_INCHI>
InChI=1S/O.V

> <PUBCHEM_IUPAC_INCHIKEY>
IBYSTTGVDIFUAY-UHFFFAOYSA-N

> <PUBCHEM_EXACT_MASS>
66.938872

> <PUBCHEM_MOLECULAR_FORMULA>
OV

> <PUBCHEM_MOLECULAR_WEIGHT>
66.941

> <PUBCHEM_SMILES>
O=[V]

> <PUBCHEM_CONNECTIVITY_SMILES>
O=[V]

> <PUBCHEM_CACTVS_TPSA>
17.1

> <PUBCHEM_MONOISOTOPIC_WEIGHT>
66.938872

> <PUBCHEM_TOTAL_CHARGE>
0

> <PUBCHEM_HEAVY_ATOM_COUNT>
2

> <PUBCHEM_ATOM_DEF_STEREO_COUNT>
0

> <PUBCHEM_ATOM_UDEF_STEREO_COUNT>
0

> <PUBCHEM_BOND_DEF_STEREO_COUNT>
0

> <PUBCHEM_BOND_UDEF_STEREO_COUNT>
0

> <PUBCHEM_ISOTOPIC_ATOM_COUNT>
0

> <PUBCHEM_COMPONENT_COUNT>
1

> <PUBCHEM_CACTVS_TAUTO_COUNT>
-1

> <PUBCHEM_COORDINATE_TYPE>
1
5
255

$$$$
