24273
  -OEChem-08152605242D

  5  4  0     0  0  0  0  0  0999 V2000
    2.0000    0.0000    0.0000 V   0  0  0  0  0  0  0  0  0  0  0  0
    2.0000    1.0000    0.0000 Cl  0  0  0  0  0  0  0  0  0  0  0  0
    2.0000   -1.0000    0.0000 Cl  0  0  0  0  0  0  0  0  0  0  0  0
    2.8660   -0.5000    0.0000 Cl  0  0  0  0  0  0  0  0  0  0  0  0
    2.8660    0.5000    0.0000 Cl  0  0  0  0  0  0  0  0  0  0  0  0
  1  2  1  0  0  0  0
  1  3  1  0  0  0  0
  1  4  1  0  0  0  0
  1  5  1  0  0  0  0
M  END
> <PUBCHEM_COMPOUND_CID>
24273

> <PUBCHEM_COMPOUND_CANONICALIZED>
1

> <PUBCHEM_CACTVS_COMPLEXITY>
19.1

> <PUBCHEM_CACTVS_HBOND_ACCEPTOR>
0

> <PUBCHEM_CACTVS_HBOND_DONOR>
0

> <PUBCHEM_CACTVS_ROTATABLE_BOND>
0

> <PUBCHEM_CACTVS_SUBSKEYS>
AAADcQAAAAAHAAEAAAAAAAAAAAAAAAAAAAAAAAAAAAAAAAAAAAAAAAAAAAAAAAAAAAAAAAAAAAAAAAAAAAAAAAAAAAAAAAAAAAAAAAAAAAAAAAAAAAAAAAAAAAAAAAAAAAAAAAAAAAAAAAAAAAAAAAAAAA==

> <PUBCHEM_IUPAC_OPENEYE_NAME>
tetrachlorovanadium

> <PUBCHEM_IUPAC_CAS_NAME>
tetrachlorovanadium

> <PUBCHEM_IUPAC_NAME_MARKUP>
tetrachlorovanadium

> <PUBCHEM_IUPAC_NAME>
tetrachlorovanadium

> <PUBCHEM_IUPAC_SYSTEMATIC_NAME>
tetrakis(chloranyl)vanadium

> <PUBCHEM_IUPAC_TRADITIONAL_NAME>
tetrachlorovanadium

> <PUBCHEM_IUPAC_INCHI>
InChI=1S/4ClH.V/h4*1H;/q;;;;+4/p-4

> <PUBCHEM_IUPAC_INCHIKEY>
JTJFQBNJBPPZRI-UHFFFAOYSA-J

> <PUBCHEM_EXACT_MASS>
192.816418

> <PUBCHEM_MOLECULAR_FORMULA>
Cl4V

> <PUBCHEM_MOLECULAR_WEIGHT>
192.7

> <PUBCHEM_SMILES>
Cl[V](Cl)(Cl)Cl

> <PUBCHEM_CONNECTIVITY_SMILES>
Cl[V](Cl)(Cl)Cl

> <PUBCHEM_CACTVS_TPSA>
0

> <PUBCHEM_MONOISOTOPIC_WEIGHT>
190.819368

> <PUBCHEM_TOTAL_CHARGE>
0

> <PUBCHEM_HEAVY_ATOM_COUNT>
5

> <PUBCHEM_ATOM_DEF_STEREO_COUNT>
0

> <PUBCHEM_ATOM_UDEF_STEREO_COUNT>
0

> <PUBCHEM_BOND_DEF_STEREO_COUNT>
0

> <PUBCHEM_BOND_UDEF_STEREO_COUNT>
0

> <PUBCHEM_ISOTOPIC_ATOM_COUNT>
0

> <PUBCHEM_COMPONENT_COUNT>
1

> <PUBCHEM_CACTVS_TAUTO_COUNT>
-1

> <PUBCHEM_COORDINATE_TYPE>
1
5
255

$$$$
