10232908
  -OEChem-08152604382D

 28 20  0     0  0  0  0  0  0999 V2000
    6.8481    0.0000    0.0000 V   0  0  0  0  0  0  0  0  0  0  0  0
    0.6160    3.7320    0.0000 V   0  0  0  0  0  0  0  0  0  0  0  0
    3.7320    5.5981    0.0000 V   0  0  0  0  0  0  0  0  0  0  0  0
    0.8660    7.0981    0.0000 P   0  0  0  0  0  0  0  0  0  0  0  0
    7.0981    3.3660    0.0000 P   0  0  0  0  0  0  0  0  0  0  0  0
    7.0981    7.0981    0.0000 P   0  0  0  0  0  0  0  0  0  0  0  0
    7.0981   10.8301    0.0000 P   0  0  0  0  0  0  0  0  0  0  0  0
   10.8301    5.8481    0.0000 P   0  0  0  0  0  0  0  0  0  0  0  0
    0.0000    6.5981    0.0000 O   0  5  0  0  0  0  0  0  0  0  0  0
    0.3660    7.9641    0.0000 O   0  5  0  0  0  0  0  0  0  0  0  0
    1.3660    6.2320    0.0000 O   0  5  0  0  0  0  0  0  0  0  0  0
    6.2320    2.8660    0.0000 O   0  5  0  0  0  0  0  0  0  0  0  0
    6.5981    4.2320    0.0000 O   0  5  0  0  0  0  0  0  0  0  0  0
    7.5981    2.5000    0.0000 O   0  5  0  0  0  0  0  0  0  0  0  0
    6.2320    6.5981    0.0000 O   0  5  0  0  0  0  0  0  0  0  0  0
    6.5981    7.9641    0.0000 O   0  5  0  0  0  0  0  0  0  0  0  0
    7.5981    6.2320    0.0000 O   0  5  0  0  0  0  0  0  0  0  0  0
    6.2320   10.3301    0.0000 O   0  5  0  0  0  0  0  0  0  0  0  0
    6.5981   11.6962    0.0000 O   0  5  0  0  0  0  0  0  0  0  0  0
    7.5981    9.9641    0.0000 O   0  5  0  0  0  0  0  0  0  0  0  0
    9.9641    5.3481    0.0000 O   0  5  0  0  0  0  0  0  0  0  0  0
   10.3301    6.7141    0.0000 O   0  5  0  0  0  0  0  0  0  0  0  0
   11.3301    4.9820    0.0000 O   0  5  0  0  0  0  0  0  0  0  0  0
    1.7320    7.5981    0.0000 O   0  0  0  0  0  0  0  0  0  0  0  0
    7.9641    3.8660    0.0000 O   0  0  0  0  0  0  0  0  0  0  0  0
    7.9641    7.5981    0.0000 O   0  0  0  0  0  0  0  0  0  0  0  0
    7.9641   11.3301    0.0000 O   0  0  0  0  0  0  0  0  0  0  0  0
   11.6962    6.3481    0.0000 O   0  0  0  0  0  0  0  0  0  0  0  0
  4  9  1  0  0  0  0
  4 10  1  0  0  0  0
  4 11  1  0  0  0  0
  4 24  2  0  0  0  0
  5 12  1  0  0  0  0
  5 13  1  0  0  0  0
  5 14  1  0  0  0  0
  5 25  2  0  0  0  0
  6 15  1  0  0  0  0
  6 16  1  0  0  0  0
  6 17  1  0  0  0  0
  6 26  2  0  0  0  0
  7 18  1  0  0  0  0
  7 19  1  0  0  0  0
  7 20  1  0  0  0  0
  7 27  2  0  0  0  0
  8 21  1  0  0  0  0
  8 22  1  0  0  0  0
  8 23  1  0  0  0  0
  8 28  2  0  0  0  0
M  CHG  8   9  -1  10  -1  11  -1  12  -1  13  -1  14  -1  15  -1  16  -1
M  CHG  7  17  -1  18  -1  19  -1  20  -1  21  -1  22  -1  23  -1
M  END
> <PUBCHEM_COMPOUND_CID>
10232908

> <PUBCHEM_COMPOUND_CANONICALIZED>
1

> <PUBCHEM_CACTVS_COMPLEXITY>
36.8

> <PUBCHEM_CACTVS_HBOND_ACCEPTOR>
20

> <PUBCHEM_CACTVS_HBOND_DONOR>
0

> <PUBCHEM_CACTVS_ROTATABLE_BOND>
0

> <PUBCHEM_CACTVS_SUBSKEYS>
AAADcQAAPgOAAAEAAAAAAAAAAAAAAAAAAAAAAAAAAAAAAAAAAAAAAAAAACAAAAAAAAAAAAAAABAAQAAAAIAAAAAAAAAAAAAAAAAAAAAAAAAAAAAAAAAAAAAAAAAAAAAAAAAAAAAAAAAAAAAAAAAAAAAAAA==

> <PUBCHEM_IUPAC_OPENEYE_NAME>
tris(vanadium);pentaphosphate

> <PUBCHEM_IUPAC_CAS_NAME>
tris(vanadium);pentaphosphate

> <PUBCHEM_IUPAC_NAME_MARKUP>
tris(vanadium);pentaphosphate

> <PUBCHEM_IUPAC_NAME>
tris(vanadium);pentaphosphate

> <PUBCHEM_IUPAC_SYSTEMATIC_NAME>
tris(vanadium);pentaphosphate

> <PUBCHEM_IUPAC_TRADITIONAL_NAME>
tris(vanadium);pentaphosphate

> <PUBCHEM_IUPAC_INCHI>
InChI=1S/5H3O4P.3V/c5*1-5(2,3)4;;;/h5*(H3,1,2,3,4);;;/p-15

> <PUBCHEM_IUPAC_INCHIKEY>
OWIJWRCGZJUZSZ-UHFFFAOYSA-A

> <PUBCHEM_EXACT_MASS>
627.598975

> <PUBCHEM_MOLECULAR_FORMULA>
O20P5V3-15

> <PUBCHEM_MOLECULAR_WEIGHT>
627.68

> <PUBCHEM_SMILES>
[O-]P(=O)([O-])[O-].[O-]P(=O)([O-])[O-].[O-]P(=O)([O-])[O-].[O-]P(=O)([O-])[O-].[O-]P(=O)([O-])[O-].[V].[V].[V]

> <PUBCHEM_CONNECTIVITY_SMILES>
[O-]P(=O)([O-])[O-].[O-]P(=O)([O-])[O-].[O-]P(=O)([O-])[O-].[O-]P(=O)([O-])[O-].[O-]P(=O)([O-])[O-].[V].[V].[V]

> <PUBCHEM_CACTVS_TPSA>
431

> <PUBCHEM_MONOISOTOPIC_WEIGHT>
627.598975

> <PUBCHEM_TOTAL_CHARGE>
-15

> <PUBCHEM_HEAVY_ATOM_COUNT>
28

> <PUBCHEM_ATOM_DEF_STEREO_COUNT>
0

> <PUBCHEM_ATOM_UDEF_STEREO_COUNT>
0

> <PUBCHEM_BOND_DEF_STEREO_COUNT>
0

> <PUBCHEM_BOND_UDEF_STEREO_COUNT>
0

> <PUBCHEM_ISOTOPIC_ATOM_COUNT>
0

> <PUBCHEM_COMPONENT_COUNT>
8

> <PUBCHEM_CACTVS_TAUTO_COUNT>
-1

> <PUBCHEM_COORDINATE_TYPE>
1
5
255

$$$$
