34007
  -OEChem-08152606472D

  7  5  0     0  0  0  0  0  0999 V2000
    4.5981    0.0000    0.0000 V   0  2  0  0  0  0  0  0  0  0  0  0
    2.8660    0.0000    0.0000 S   0  0  0  0  0  0  0  0  0  0  0  0
    3.7321    0.5000    0.0000 O   0  5  0  0  0  0  0  0  0  0  0  0
    2.0000   -0.5000    0.0000 O   0  5  0  0  0  0  0  0  0  0  0  0
    2.3660    0.8660    0.0000 O   0  0  0  0  0  0  0  0  0  0  0  0
    3.3660   -0.8660    0.0000 O   0  0  0  0  0  0  0  0  0  0  0  0
    5.4641    0.5000    0.0000 O   0  0  0  0  0  0  0  0  0  0  0  0
  1  7  2  0  0  0  0
  2  3  1  0  0  0  0
  2  4  1  0  0  0  0
  2  5  2  0  0  0  0
  2  6  2  0  0  0  0
M  CHG  3   1   2   3  -1   4  -1
M  END
> <PUBCHEM_COMPOUND_CID>
34007

> <PUBCHEM_COMPOUND_CANONICALIZED>
1

> <PUBCHEM_CACTVS_COMPLEXITY>
64.2

> <PUBCHEM_CACTVS_HBOND_ACCEPTOR>
5

> <PUBCHEM_CACTVS_HBOND_DONOR>
0

> <PUBCHEM_CACTVS_ROTATABLE_BOND>
0

> <PUBCHEM_CACTVS_SUBSKEYS>
AAADcQAAOABAAAEAAAAAAAAAAAAAAAAAAAAAAAAAAAAAAAAAAAAAAAAAAAAAAAAAAAAAAAAAAAAAAAAAADAAAAAAAAAAAAAAAAAAAAAAAAAAAAAAAAAAAAAAAAAAAAAAAAAAAAAAAAAAAAAAAAAAAAAAAA==

> <PUBCHEM_IUPAC_OPENEYE_NAME>
oxovanadium(2+) sulfate

> <PUBCHEM_IUPAC_CAS_NAME>
oxovanadium(2+) sulfate

> <PUBCHEM_IUPAC_NAME_MARKUP>
oxovanadium(2+) sulfate

> <PUBCHEM_IUPAC_NAME>
oxovanadium(2+) sulfate

> <PUBCHEM_IUPAC_SYSTEMATIC_NAME>
oxidanylidenevanadium(2+) sulfate

> <PUBCHEM_IUPAC_TRADITIONAL_NAME>
ketovanadium(2+) sulfate

> <PUBCHEM_IUPAC_INCHI>
InChI=1S/H2O4S.O.V/c1-5(2,3)4;;/h(H2,1,2,3,4);;/q;;+2/p-2

> <PUBCHEM_IUPAC_INCHIKEY>
UUUGYDOQQLOJQA-UHFFFAOYSA-L

> <PUBCHEM_EXACT_MASS>
162.890602

> <PUBCHEM_MOLECULAR_FORMULA>
O5SV

> <PUBCHEM_MOLECULAR_WEIGHT>
163.01

> <PUBCHEM_SMILES>
[O-]S(=O)(=O)[O-].O=[V+2]

> <PUBCHEM_CONNECTIVITY_SMILES>
[O-]S(=O)(=O)[O-].O=[V+2]

> <PUBCHEM_CACTVS_TPSA>
106

> <PUBCHEM_MONOISOTOPIC_WEIGHT>
162.890602

> <PUBCHEM_TOTAL_CHARGE>
0

> <PUBCHEM_HEAVY_ATOM_COUNT>
7

> <PUBCHEM_ATOM_DEF_STEREO_COUNT>
0

> <PUBCHEM_ATOM_UDEF_STEREO_COUNT>
0

> <PUBCHEM_BOND_DEF_STEREO_COUNT>
0

> <PUBCHEM_BOND_UDEF_STEREO_COUNT>
0

> <PUBCHEM_ISOTOPIC_ATOM_COUNT>
0

> <PUBCHEM_COMPONENT_COUNT>
2

> <PUBCHEM_CACTVS_TAUTO_COUNT>
-1

> <PUBCHEM_COORDINATE_TYPE>
1
5
255

$$$$
