60211072
  -OEChem-08152607222D

  4  3  0     0  0  0  0  0  0999 V2000
    3.0000   -0.5000    0.0000 Xe  0  0  0  0  0  0  0  0  0  0  0  0
    3.0000    0.5000    0.0000 F   0  0  0  0  0  0  0  0  0  0  0  0
    2.0000   -0.5000    0.0000 F   0  0  0  0  0  0  0  0  0  0  0  0
    4.0000   -0.5000    0.0000 O   0  0  0  0  0  0  0  0  0  0  0  0
  1  2  1  0  0  0  0
  1  3  1  0  0  0  0
  1  4  2  0  0  0  0
M  END
> <PUBCHEM_COMPOUND_CID>
60211072

> <PUBCHEM_COMPOUND_CANONICALIZED>
1

> <PUBCHEM_CACTVS_COMPLEXITY>
29

> <PUBCHEM_CACTVS_HBOND_ACCEPTOR>
3

> <PUBCHEM_CACTVS_HBOND_DONOR>
0

> <PUBCHEM_CACTVS_ROTATABLE_BOND>
0

> <PUBCHEM_CACTVS_SUBSKEYS>
AAADcQAAIYAAAAAAAAAQAAAAAAAAAAAAAAAAAAAAAAAAAAAAAAAAAAAAAAAAAAAAAAAAAAAAAAAAAAAAAAAAAAAAAAAAAAAAAAAAAAAAAAAAAAAAAAAAAAAAAAAAAAAAAAAAAAAAAAAAAAAAAAAAAAAAAA==

> <PUBCHEM_IUPAC_OPENEYE_NAME>
difluoro(oxo)xenon

> <PUBCHEM_IUPAC_CAS_NAME>
difluoro(oxo)xenon

> <PUBCHEM_IUPAC_NAME_MARKUP>
difluoro(oxo)xenon

> <PUBCHEM_IUPAC_NAME>
difluoro(oxo)xenon

> <PUBCHEM_IUPAC_SYSTEMATIC_NAME>
bis(fluoranyl)-oxidanylidene-xenon

> <PUBCHEM_IUPAC_TRADITIONAL_NAME>
difluoro(keto)xenon

> <PUBCHEM_IUPAC_INCHI>
InChI=1S/F2OXe/c1-4(2)3

> <PUBCHEM_IUPAC_INCHIKEY>
AJCPXXGFGZRPPK-UHFFFAOYSA-N

> <PUBCHEM_EXACT_MASS>
185.89587603

> <PUBCHEM_MOLECULAR_FORMULA>
F2OXe

> <PUBCHEM_MOLECULAR_WEIGHT>
185.29

> <PUBCHEM_SMILES>
O=[Xe](F)F

> <PUBCHEM_CONNECTIVITY_SMILES>
O=[Xe](F)F

> <PUBCHEM_CACTVS_TPSA>
17.1

> <PUBCHEM_MONOISOTOPIC_WEIGHT>
185.89587603

> <PUBCHEM_TOTAL_CHARGE>
0

> <PUBCHEM_HEAVY_ATOM_COUNT>
4

> <PUBCHEM_ATOM_DEF_STEREO_COUNT>
0

> <PUBCHEM_ATOM_UDEF_STEREO_COUNT>
0

> <PUBCHEM_BOND_DEF_STEREO_COUNT>
0

> <PUBCHEM_BOND_UDEF_STEREO_COUNT>
0

> <PUBCHEM_ISOTOPIC_ATOM_COUNT>
0

> <PUBCHEM_COMPONENT_COUNT>
1

> <PUBCHEM_CACTVS_TAUTO_COUNT>
-1

> <PUBCHEM_COORDINATE_TYPE>
1
5
255

$$$$
