21115929
  -OEChem-08152607092D

  3  0  0     0  0  0  0  0  0999 V2000
    2.8660   -0.2500    0.0000 Yb  0  2  0  0  0  0  0  0  0  0  0  0
    3.7320    0.2500    0.0000 F   0  5  0  0  0  0  0  0  0  0  0  0
    2.0000    0.2500    0.0000 F   0  5  0  0  0  0  0  0  0  0  0  0
M  CHG  3   1   2   2  -1   3  -1
M  END
> <PUBCHEM_COMPOUND_CID>
21115929

> <PUBCHEM_COMPOUND_CANONICALIZED>
1

> <PUBCHEM_CACTVS_COMPLEXITY>
0

> <PUBCHEM_CACTVS_HBOND_ACCEPTOR>
2

> <PUBCHEM_CACTVS_HBOND_DONOR>
0

> <PUBCHEM_CACTVS_ROTATABLE_BOND>
0

> <PUBCHEM_CACTVS_SUBSKEYS>
AAADcQAAAYAAAAAAAAAAAAAAgAAAAAAAAAAAAAAAAAAAAAAAAAAAAAAAAAAAAAAAAAAAAAAAAAAAAAAAAAAAAAAAAAAAAAAAAAAAAAAAAAAAAAAAAAAAAAAAAAAAAAAAAAAAAAAAAAAAAAAAAAAAAAAAAA==

> <PUBCHEM_IUPAC_OPENEYE_NAME>
ytterbium(2+) difluoride

> <PUBCHEM_IUPAC_CAS_NAME>
ytterbium(2+) difluoride

> <PUBCHEM_IUPAC_NAME_MARKUP>
ytterbium(2+) difluoride

> <PUBCHEM_IUPAC_NAME>
ytterbium(2+) difluoride

> <PUBCHEM_IUPAC_SYSTEMATIC_NAME>
ytterbium(2+) difluoride

> <PUBCHEM_IUPAC_TRADITIONAL_NAME>
ytterbium(2+) difluoride

> <PUBCHEM_IUPAC_INCHI>
InChI=1S/2FH.Yb/h2*1H;/q;;+2/p-2

> <PUBCHEM_IUPAC_INCHIKEY>
DZIGMZRMIWDBCU-UHFFFAOYSA-L

> <PUBCHEM_EXACT_MASS>
211.9356739

> <PUBCHEM_MOLECULAR_FORMULA>
F2Yb

> <PUBCHEM_MOLECULAR_WEIGHT>
211.04

> <PUBCHEM_SMILES>
[F-].[F-].[Yb+2]

> <PUBCHEM_CONNECTIVITY_SMILES>
[F-].[F-].[Yb+2]

> <PUBCHEM_CACTVS_TPSA>
0

> <PUBCHEM_MONOISOTOPIC_WEIGHT>
211.9356739

> <PUBCHEM_TOTAL_CHARGE>
0

> <PUBCHEM_HEAVY_ATOM_COUNT>
3

> <PUBCHEM_ATOM_DEF_STEREO_COUNT>
0

> <PUBCHEM_ATOM_UDEF_STEREO_COUNT>
0

> <PUBCHEM_BOND_DEF_STEREO_COUNT>
0

> <PUBCHEM_BOND_UDEF_STEREO_COUNT>
0

> <PUBCHEM_ISOTOPIC_ATOM_COUNT>
0

> <PUBCHEM_COMPONENT_COUNT>
3

> <PUBCHEM_CACTVS_TAUTO_COUNT>
-1

> <PUBCHEM_COORDINATE_TYPE>
1
5
255

$$$$
