160933802
  -OEChem-08152607402D

  2  0  0     0  0  0  0  0  0999 V2000
    3.0000    0.0000    0.0000 Yb  0  2  0  0  0  0  0  0  0  0  0  0
    2.0000    0.0000    0.0000 S   0  6  0  0  0  0  0  0  0  0  0  0
M  CHG  2   1   2   2  -2
M  END
> <PUBCHEM_COMPOUND_CID>
160933802

> <PUBCHEM_COMPOUND_CANONICALIZED>
1

> <PUBCHEM_CACTVS_COMPLEXITY>
0

> <PUBCHEM_CACTVS_HBOND_ACCEPTOR>
1

> <PUBCHEM_CACTVS_HBOND_DONOR>
0

> <PUBCHEM_CACTVS_ROTATABLE_BOND>
0

> <PUBCHEM_CACTVS_SUBSKEYS>
AAADcQAAAABAAAAAAAAAAAAAgAAAAAAAAAAAAAAAAAAAAAAAAAAAAAAAAAAAAAAAAAAAAAAAAAAAAAAAAAAAAAAAAAAAAAAAAAAAAAAAAAAAAAAAAAAAAAAAAAAAAAAAAAAAAAAAAAAAAAAAAAAAAAAAAA==

> <PUBCHEM_IUPAC_OPENEYE_NAME>
ytterbium(2+) sulfide

> <PUBCHEM_IUPAC_CAS_NAME>
ytterbium(2+) sulfide

> <PUBCHEM_IUPAC_NAME_MARKUP>
ytterbium(2+) sulfide

> <PUBCHEM_IUPAC_NAME>
ytterbium(2+) sulfide

> <PUBCHEM_IUPAC_SYSTEMATIC_NAME>
ytterbium(2+) sulfide

> <PUBCHEM_IUPAC_TRADITIONAL_NAME>
ytterbium(2+) sulfide

> <PUBCHEM_IUPAC_INCHI>
InChI=1S/S.Yb/q-2;+2

> <PUBCHEM_IUPAC_INCHIKEY>
STPNWEUJQBODKV-UHFFFAOYSA-N

> <PUBCHEM_EXACT_MASS>
205.9109387

> <PUBCHEM_MOLECULAR_FORMULA>
SYb

> <PUBCHEM_MOLECULAR_WEIGHT>
205.11

> <PUBCHEM_SMILES>
[S-2].[Yb+2]

> <PUBCHEM_CONNECTIVITY_SMILES>
[S-2].[Yb+2]

> <PUBCHEM_CACTVS_TPSA>
1

> <PUBCHEM_MONOISOTOPIC_WEIGHT>
205.9109387

> <PUBCHEM_TOTAL_CHARGE>
0

> <PUBCHEM_HEAVY_ATOM_COUNT>
2

> <PUBCHEM_ATOM_DEF_STEREO_COUNT>
0

> <PUBCHEM_ATOM_UDEF_STEREO_COUNT>
0

> <PUBCHEM_BOND_DEF_STEREO_COUNT>
0

> <PUBCHEM_BOND_UDEF_STEREO_COUNT>
0

> <PUBCHEM_ISOTOPIC_ATOM_COUNT>
0

> <PUBCHEM_COMPONENT_COUNT>
2

> <PUBCHEM_CACTVS_TAUTO_COUNT>
-1

> <PUBCHEM_COORDINATE_TYPE>
1
5
255

$$$$
