129647105
  -OEChem-08152607362D

  7  3  0     0  0  0  0  0  0999 V2000
    3.7320    0.5000    0.0000 Y   0  1  0  0  0  0  0  0  0  0  0  0
    5.4641    1.5000    0.0000 N   0  0  0  0  0  0  0  0  0  0  0  0
    2.0000    1.5000    0.0000 N   0  0  0  0  0  0  0  0  0  0  0  0
    3.7320   -1.5000    0.0000 N   0  0  0  0  0  0  0  0  0  0  0  0
    4.5981    1.0000    0.0000 C   0  5  0  0  0  0  0  0  0  0  0  0
    2.8660    1.0000    0.0000 C   0  5  0  0  0  0  0  0  0  0  0  0
    3.7320   -0.5000    0.0000 C   0  5  0  0  0  0  0  0  0  0  0  0
  2  5  3  0  0  0  0
  3  6  3  0  0  0  0
  4  7  3  0  0  0  0
M  CHG  4   1   3   5  -1   6  -1   7  -1
M  END
> <PUBCHEM_COMPOUND_CID>
129647105

> <PUBCHEM_COMPOUND_CANONICALIZED>
1

> <PUBCHEM_CACTVS_COMPLEXITY>
53.2

> <PUBCHEM_CACTVS_HBOND_ACCEPTOR>
6

> <PUBCHEM_CACTVS_HBOND_DONOR>
0

> <PUBCHEM_CACTVS_ROTATABLE_BOND>
0

> <PUBCHEM_CACTVS_SUBSKEYS>
AAADcQBDAAAAAAAAAgAAAAAAAAAAAAAAAAAAAAAAAAAAAAAAAAAABAAAAAAAAAAAAAAAAAAAAAAQAAAAAAAAAAAAAAAAAAAAAAAAAAAAAAAAAAAAAAAAAAAAAAAAAAAAAAAAAAAAAAAAAAAAAAAAAAAAAA==

> <PUBCHEM_IUPAC_OPENEYE_NAME>
yttrium(3+) tricyanide

> <PUBCHEM_IUPAC_CAS_NAME>
yttrium(3+) tricyanide

> <PUBCHEM_IUPAC_NAME_MARKUP>
yttrium(3+) tricyanide

> <PUBCHEM_IUPAC_NAME>
yttrium(3+) tricyanide

> <PUBCHEM_IUPAC_SYSTEMATIC_NAME>
yttrium(3+) tricyanide

> <PUBCHEM_IUPAC_TRADITIONAL_NAME>
yttrium(3+) tricyanide

> <PUBCHEM_IUPAC_INCHI>
InChI=1S/3CN.Y/c3*1-2;/q3*-1;+3

> <PUBCHEM_IUPAC_INCHIKEY>
VXPAAJZTFANDAX-UHFFFAOYSA-N

> <PUBCHEM_EXACT_MASS>
166.915060

> <PUBCHEM_MOLECULAR_FORMULA>
C3N3Y

> <PUBCHEM_MOLECULAR_WEIGHT>
166.96

> <PUBCHEM_SMILES>
[C-]#N.[C-]#N.[C-]#N.[Y+3]

> <PUBCHEM_CONNECTIVITY_SMILES>
[C-]#N.[C-]#N.[C-]#N.[Y+3]

> <PUBCHEM_CACTVS_TPSA>
71.4

> <PUBCHEM_MONOISOTOPIC_WEIGHT>
166.915060

> <PUBCHEM_TOTAL_CHARGE>
0

> <PUBCHEM_HEAVY_ATOM_COUNT>
7

> <PUBCHEM_ATOM_DEF_STEREO_COUNT>
0

> <PUBCHEM_ATOM_UDEF_STEREO_COUNT>
0

> <PUBCHEM_BOND_DEF_STEREO_COUNT>
0

> <PUBCHEM_BOND_UDEF_STEREO_COUNT>
0

> <PUBCHEM_ISOTOPIC_ATOM_COUNT>
0

> <PUBCHEM_COMPONENT_COUNT>
4

> <PUBCHEM_CACTVS_TAUTO_COUNT>
-1

> <PUBCHEM_NONSTANDARDBOND>
1  5  6
1  6  6
1  7  6

> <PUBCHEM_COORDINATE_TYPE>
1
5
255

$$$$
