102601900
  -OEChem-08152606252D

  7 10  0     0  0  0  0  0  0999 V2000
    1.0000    0.0000    0.0000 Y   0  0  0  0  0  0  0  0  0  0  0  0
    3.0000    0.0000    0.0000 B   0  5  0  0  0  0  0  0  0  0  0  0
    2.0000   -4.3500    0.0000 B   0  5  0  0  0  0  0  0  0  0  0  0
    0.5000   -2.3500    0.0000 B   0  0  0  0  0  0  0  0  0  0  0  0
    1.5000   -2.1500    0.0000 B   0  0  0  0  0  0  0  0  0  0  0  0
    2.5000   -1.8000    0.0000 B   0  0  0  0  0  0  0  0  0  0  0  0
    3.5000   -2.0000    0.0000 B   0  0  0  0  0  0  0  0  0  0  0  0
  2  4  1  0  0  0  0
  2  5  1  0  0  0  0
  2  6  1  0  0  0  0
  2  7  1  0  0  0  0
  3  4  1  0  0  0  0
  3  5  1  0  0  0  0
  3  6  1  0  0  0  0
  3  7  1  0  0  0  0
  4  5  1  0  0  0  0
  6  7  1  0  0  0  0
M  CHG  2   2  -1   3  -1
M  END
> <PUBCHEM_COMPOUND_CID>
102601900

> <PUBCHEM_COMPOUND_CANONICALIZED>
1

> <PUBCHEM_CACTVS_COMPLEXITY>
132

> <PUBCHEM_CACTVS_HBOND_ACCEPTOR>
2

> <PUBCHEM_CACTVS_HBOND_DONOR>
0

> <PUBCHEM_CACTVS_ROTATABLE_BOND>
0

> <PUBCHEM_CACTVS_SUBSKEYS>
AAADcQOAAAAAAAAAAgAAAAAAEiRIkAAAAAAAAAAAAAAAAAAAAABAAAAAAAAAAAAAAAAAAAAAAAAAAAAAAAAAAAAAAAAAAAAAAAAAAAAAAAAAAAAAAAAAAAAAAAAAAAAAAAAAAAAAAAAAAAAAAAAAAAAAAA==

> <PUBCHEM_IUPAC_OPENEYE_NAME>
2,3,5,6-tetrabora-1,4-diboranuidapentacyclo[3.1.0.01,3.02,4.04,6]hexane;yttrium

> <PUBCHEM_IUPAC_CAS_NAME>
2,3,5,6-tetrabora-1,4-diboranuidapentacyclo[3.1.0.01,3.02,4.04,6]hexane;yttrium

> <PUBCHEM_IUPAC_NAME_MARKUP>
2,3,5,6-tetrabora-1,4-diboranuidapentacyclo[3.1.0.0<SUP>1,3</SUP>.0<SUP>2,4</SUP>.0<SUP>4,6</SUP>]hexane;yttrium

> <PUBCHEM_IUPAC_NAME>
2,3,5,6-tetrabora-1,4-diboranuidapentacyclo[3.1.0.01,3.02,4.04,6]hexane;yttrium

> <PUBCHEM_IUPAC_SYSTEMATIC_NAME>
2,3,5,6-tetrabora-1,4-diboranuidapentacyclo[3.1.0.01,3.02,4.04,6]hexane;yttrium

> <PUBCHEM_IUPAC_TRADITIONAL_NAME>
2,3,5,6-tetrabora-1,4-diboranuidapentacyclo[3.1.0.01,3.02,4.04,6]hexane;yttrium

> <PUBCHEM_IUPAC_INCHI>
InChI=1S/B6.Y/c1-2-5(1)3-4(5)6(1,2)3;/q-2;

> <PUBCHEM_IUPAC_INCHIKEY>
UUYRHUIOHIGTMQ-UHFFFAOYSA-N

> <PUBCHEM_EXACT_MASS>
153.965301

> <PUBCHEM_MOLECULAR_FORMULA>
B6Y-2

> <PUBCHEM_MOLECULAR_WEIGHT>
153.8

> <PUBCHEM_SMILES>
B12B3[B-]14B5[B-]23B45.[Y]

> <PUBCHEM_CONNECTIVITY_SMILES>
B12B3[B-]14B5[B-]23B45.[Y]

> <PUBCHEM_CACTVS_TPSA>
0

> <PUBCHEM_MONOISOTOPIC_WEIGHT>
154.961669

> <PUBCHEM_TOTAL_CHARGE>
-2

> <PUBCHEM_HEAVY_ATOM_COUNT>
7

> <PUBCHEM_ATOM_DEF_STEREO_COUNT>
0

> <PUBCHEM_ATOM_UDEF_STEREO_COUNT>
0

> <PUBCHEM_BOND_DEF_STEREO_COUNT>
0

> <PUBCHEM_BOND_UDEF_STEREO_COUNT>
0

> <PUBCHEM_ISOTOPIC_ATOM_COUNT>
0

> <PUBCHEM_COMPONENT_COUNT>
2

> <PUBCHEM_CACTVS_TAUTO_COUNT>
-1

> <PUBCHEM_COORDINATE_TYPE>
1
5
255

$$$$
