25147458
  -OEChem-08152605432D

  5  2  0     0  0  0  0  0  0999 V2000
    4.5981    0.2500    0.0000 As  0  4  0  0  0  0  0  0  0  0  0  0
    2.8660    0.2500    0.0000 As  0  4  0  0  0  0  0  0  0  0  0  0
    3.7321   -0.2500    0.0000 Zn  0  0  0  0  0  0  0  0  0  0  0  0
    5.4641   -0.2500    0.0000 Zn  0  0  0  0  0  0  0  0  0  0  0  0
    2.0000   -0.2500    0.0000 Zn  0  0  0  0  0  0  0  0  0  0  0  0
  1  4  2  0  0  0  0
  2  5  2  0  0  0  0
M  RAD  2   1   2   2   2
M  END
> <PUBCHEM_COMPOUND_CID>
25147458

> <PUBCHEM_COMPOUND_CANONICALIZED>
1

> <PUBCHEM_CACTVS_COMPLEXITY>
6.9

> <PUBCHEM_CACTVS_HBOND_ACCEPTOR>
0

> <PUBCHEM_CACTVS_HBOND_DONOR>
0

> <PUBCHEM_CACTVS_ROTATABLE_BOND>
0

> <PUBCHEM_CACTVS_SUBSKEYS>
AAADcQAAAAAAAAACQAAAAAAAAAAAAAAAAAAAAAAAAAAAAAAAAAAAAAAAAAAAAAAAAAAAAAAAAAAAAAAAAAAAAAAAAAAAAAAAAAAAAAAAAAAAAAAAAAAAAAAAAAAAAAAAAAAAAAAAAAAAAAAAAAAAAAAAAA==

> <PUBCHEM_IUPAC_INCHI>
InChI=1S/2As.3Zn

> <PUBCHEM_IUPAC_INCHIKEY>
RHKSESDHCKYTHI-UHFFFAOYSA-N

> <PUBCHEM_EXACT_MASS>
343.62751

> <PUBCHEM_MOLECULAR_FORMULA>
As2Zn3

> <PUBCHEM_MOLECULAR_WEIGHT>
346.0

> <PUBCHEM_SMILES>
[Zn].[Zn]=[As].[Zn]=[As]

> <PUBCHEM_CONNECTIVITY_SMILES>
[Zn].[Zn]=[As].[Zn]=[As]

> <PUBCHEM_CACTVS_TPSA>
0

> <PUBCHEM_MONOISOTOPIC_WEIGHT>
341.63061

> <PUBCHEM_TOTAL_CHARGE>
0

> <PUBCHEM_HEAVY_ATOM_COUNT>
5

> <PUBCHEM_ATOM_DEF_STEREO_COUNT>
0

> <PUBCHEM_ATOM_UDEF_STEREO_COUNT>
0

> <PUBCHEM_BOND_DEF_STEREO_COUNT>
0

> <PUBCHEM_BOND_UDEF_STEREO_COUNT>
0

> <PUBCHEM_ISOTOPIC_ATOM_COUNT>
0

> <PUBCHEM_COMPONENT_COUNT>
3

> <PUBCHEM_CACTVS_TAUTO_COUNT>
-1

> <PUBCHEM_NONSTANDARDBOND>
1  3  6
2  3  6

> <PUBCHEM_COORDINATE_TYPE>
1
5
255

$$$$
