25113606
  -OEChem-08152606022D

  5  0  0     0  0  0  0  0  0999 V2000
    3.7321    0.7500    0.0000 Zn  0  2  0  0  0  0  0  0  0  0  0  0
    2.0000    0.7500    0.0000 Zn  0  2  0  0  0  0  0  0  0  0  0  0
    2.8660   -0.7500    0.0000 Zn  0  2  0  0  0  0  0  0  0  0  0  0
    2.8660    0.2500    0.0000 P   0  7  0  0  0  0  0  0  0  0  0  0
    4.5981    0.2500    0.0000 P   0  7  0  0  0  0  0  0  0  0  0  0
M  CHG  5   1   2   2   2   3   2   4  -3   5  -3
M  END
> <PUBCHEM_COMPOUND_CID>
25113606

> <PUBCHEM_COMPOUND_CANONICALIZED>
1

> <PUBCHEM_CACTVS_COMPLEXITY>
0

> <PUBCHEM_CACTVS_HBOND_ACCEPTOR>
2

> <PUBCHEM_CACTVS_HBOND_DONOR>
0

> <PUBCHEM_CACTVS_ROTATABLE_BOND>
0

> <PUBCHEM_CACTVS_SUBSKEYS>
AAADcQAAAAMAAAACAAAAAAAAAAAAAAAAAAAAAAAAAAAAAAAAAAAAAAAAAAAAAAAAAAAAAAAAAAAAAAAAAAAAAAAAAAAAAAAAAAAAAAAAAAAAAAAAAAAAAAAAAAAAAAAAAAAAAAAAAAAAAAAAAAAAAAAAAA==

> <PUBCHEM_IUPAC_OPENEYE_NAME>
trizinc bis(phosphorus(3-))

> <PUBCHEM_IUPAC_CAS_NAME>
trizinc bis(phosphorus(3-))

> <PUBCHEM_IUPAC_NAME_MARKUP>
trizinc bis(phosphorus(3-))

> <PUBCHEM_IUPAC_NAME>
trizinc bis(phosphorus(3-))

> <PUBCHEM_IUPAC_SYSTEMATIC_NAME>
trizinc bis(phosphorus(3-))

> <PUBCHEM_IUPAC_TRADITIONAL_NAME>
trizinc bis(phosphorus(3-))

> <PUBCHEM_IUPAC_INCHI>
InChI=1S/2P.3Zn/q2*-3;3*+2

> <PUBCHEM_IUPAC_INCHIKEY>
IGSZOEHCOKSBEI-UHFFFAOYSA-N

> <PUBCHEM_EXACT_MASS>
255.73184

> <PUBCHEM_MOLECULAR_FORMULA>
P2Zn3

> <PUBCHEM_MOLECULAR_WEIGHT>
258.1

> <PUBCHEM_SMILES>
[P-3].[P-3].[Zn+2].[Zn+2].[Zn+2]

> <PUBCHEM_CONNECTIVITY_SMILES>
[P-3].[P-3].[Zn+2].[Zn+2].[Zn+2]

> <PUBCHEM_CACTVS_TPSA>
0

> <PUBCHEM_MONOISOTOPIC_WEIGHT>
253.73495

> <PUBCHEM_TOTAL_CHARGE>
0

> <PUBCHEM_HEAVY_ATOM_COUNT>
5

> <PUBCHEM_ATOM_DEF_STEREO_COUNT>
0

> <PUBCHEM_ATOM_UDEF_STEREO_COUNT>
0

> <PUBCHEM_BOND_DEF_STEREO_COUNT>
0

> <PUBCHEM_BOND_UDEF_STEREO_COUNT>
0

> <PUBCHEM_ISOTOPIC_ATOM_COUNT>
0

> <PUBCHEM_COMPONENT_COUNT>
5

> <PUBCHEM_CACTVS_TAUTO_COUNT>
-1

> <PUBCHEM_COORDINATE_TYPE>
1
5
255

$$$$
