22022519
  -OEChem-08152605422D

  6  4  0     0  0  0  0  0  0999 V2000
    3.0000    0.0000    0.0000 W   0  0  0  0  0  0  0  0  0  0  0  0
    2.0000   -1.0000    0.0000 Zn  0  2  0  0  0  0  0  0  0  0  0  0
    2.0000    0.0000    0.0000 O   0  5  0  0  0  0  0  0  0  0  0  0
    3.0000   -1.0000    0.0000 O   0  5  0  0  0  0  0  0  0  0  0  0
    4.0000   -0.0000    0.0000 O   0  0  0  0  0  0  0  0  0  0  0  0
    3.0000    1.0000    0.0000 O   0  0  0  0  0  0  0  0  0  0  0  0
  1  3  1  0  0  0  0
  1  4  1  0  0  0  0
  1  5  2  0  0  0  0
  1  6  2  0  0  0  0
M  CHG  3   2   2   3  -1   4  -1
M  END
> <PUBCHEM_COMPOUND_CID>
22022519

> <PUBCHEM_COMPOUND_CANONICALIZED>
1

> <PUBCHEM_CACTVS_COMPLEXITY>
62.2

> <PUBCHEM_CACTVS_HBOND_ACCEPTOR>
4

> <PUBCHEM_CACTVS_HBOND_DONOR>
0

> <PUBCHEM_CACTVS_ROTATABLE_BOND>
0

> <PUBCHEM_CACTVS_SUBSKEYS>
AAADcQAAOAAAAAACAAAAQAAAAAAAAAAAAAAAAAAAAAAAAAAAAAAAAAAAAAAAAAAAAAAAAAAAAAAAAAAAAAAAAAAAAAAAAAAAAAAAAAAAAAAAAAAAAAAAAAAAAAAAAAAAAAAAAAAAAAAAAAAAAAAAAAAAAA==

> <PUBCHEM_IUPAC_OPENEYE_NAME>
zinc dioxido(dioxo)tungsten

> <PUBCHEM_IUPAC_CAS_NAME>
zinc dioxido(dioxo)tungsten

> <PUBCHEM_IUPAC_NAME_MARKUP>
zinc dioxido(dioxo)tungsten

> <PUBCHEM_IUPAC_NAME>
zinc dioxido(dioxo)tungsten

> <PUBCHEM_IUPAC_SYSTEMATIC_NAME>
zinc bis(oxidanidyl)-bis(oxidanylidene)tungsten

> <PUBCHEM_IUPAC_TRADITIONAL_NAME>
zinc diketo(dioxido)tungsten

> <PUBCHEM_IUPAC_INCHI>
InChI=1S/4O.W.Zn/q;;2*-1;;+2

> <PUBCHEM_IUPAC_INCHIKEY>
LJSXSLGFYGBEPA-UHFFFAOYSA-N

> <PUBCHEM_EXACT_MASS>
311.85973

> <PUBCHEM_MOLECULAR_FORMULA>
O4WZn

> <PUBCHEM_MOLECULAR_WEIGHT>
313.2

> <PUBCHEM_SMILES>
[O-][W](=O)(=O)[O-].[Zn+2]

> <PUBCHEM_CONNECTIVITY_SMILES>
[O-][W](=O)(=O)[O-].[Zn+2]

> <PUBCHEM_CACTVS_TPSA>
80.3

> <PUBCHEM_MONOISOTOPIC_WEIGHT>
311.85973

> <PUBCHEM_TOTAL_CHARGE>
0

> <PUBCHEM_HEAVY_ATOM_COUNT>
6

> <PUBCHEM_ATOM_DEF_STEREO_COUNT>
0

> <PUBCHEM_ATOM_UDEF_STEREO_COUNT>
0

> <PUBCHEM_BOND_DEF_STEREO_COUNT>
0

> <PUBCHEM_BOND_UDEF_STEREO_COUNT>
0

> <PUBCHEM_ISOTOPIC_ATOM_COUNT>
0

> <PUBCHEM_COMPONENT_COUNT>
2

> <PUBCHEM_CACTVS_TAUTO_COUNT>
-1

> <PUBCHEM_COORDINATE_TYPE>
1
5
255

$$$$
