173000778
  -OEChem-08152604422D

  4  1  0     0  0  0  0  0  0999 V2000
    2.8660    0.2500    0.0000 Zr  0  2  0  0  0  0  0  0  0  0  0  0
    2.0000    0.7500    0.0000 Cl  0  5  0  0  0  0  0  0  0  0  0  0
    2.8660   -0.7500    0.0000 Cl  0  5  0  0  0  0  0  0  0  0  0  0
    3.7321    0.7500    0.0000 O   0  0  0  0  0  0  0  0  0  0  0  0
  1  4  2  0  0  0  0
M  CHG  3   1   2   2  -1   3  -1
M  END
> <PUBCHEM_COMPOUND_CID>
173000778

> <PUBCHEM_COMPOUND_CANONICALIZED>
1

> <PUBCHEM_CACTVS_COMPLEXITY>
2

> <PUBCHEM_CACTVS_HBOND_ACCEPTOR>
3

> <PUBCHEM_CACTVS_HBOND_DONOR>
0

> <PUBCHEM_CACTVS_ROTATABLE_BOND>
0

> <PUBCHEM_CACTVS_SUBSKEYS>
AAADcQAAIAAGAAAAAQAAAAAAAAAAAAAAAAAAAAAAAAAAAAAAAAAAAAAAAAAAAAAAAAAAAAAAAAAAAAAAAAAAAAAAAAAAAAAAAAAAAAAAAAAAAAAAAAAAAAAAAAAAAAAAAAAAAAAAAAAAAAAAAAAAAAAAAA==

> <PUBCHEM_IUPAC_OPENEYE_NAME>
oxozirconium(2+) dichloride

> <PUBCHEM_IUPAC_CAS_NAME>
oxozirconium(2+) dichloride

> <PUBCHEM_IUPAC_NAME_MARKUP>
oxozirconium(2+) dichloride

> <PUBCHEM_IUPAC_NAME>
oxozirconium(2+) dichloride

> <PUBCHEM_IUPAC_SYSTEMATIC_NAME>
oxidanylidenezirconium(2+) dichloride

> <PUBCHEM_IUPAC_TRADITIONAL_NAME>
ketozirconium(2+) dichloride

> <PUBCHEM_IUPAC_INCHI>
InChI=1S/2ClH.O.Zr/h2*1H;;/q;;;+2/p-2

> <PUBCHEM_IUPAC_INCHIKEY>
IPCAPQRVQMIMAN-UHFFFAOYSA-L

> <PUBCHEM_EXACT_MASS>
175.837319

> <PUBCHEM_MOLECULAR_FORMULA>
Cl2OZr

> <PUBCHEM_MOLECULAR_WEIGHT>
178.12

> <PUBCHEM_SMILES>
O=[Zr+2].[Cl-].[Cl-]

> <PUBCHEM_CONNECTIVITY_SMILES>
O=[Zr+2].[Cl-].[Cl-]

> <PUBCHEM_CACTVS_TPSA>
17.1

> <PUBCHEM_MONOISOTOPIC_WEIGHT>
175.837319

> <PUBCHEM_TOTAL_CHARGE>
0

> <PUBCHEM_HEAVY_ATOM_COUNT>
4

> <PUBCHEM_ATOM_DEF_STEREO_COUNT>
0

> <PUBCHEM_ATOM_UDEF_STEREO_COUNT>
0

> <PUBCHEM_BOND_DEF_STEREO_COUNT>
0

> <PUBCHEM_BOND_UDEF_STEREO_COUNT>
0

> <PUBCHEM_ISOTOPIC_ATOM_COUNT>
0

> <PUBCHEM_COMPONENT_COUNT>
3

> <PUBCHEM_CACTVS_TAUTO_COUNT>
-1

> <PUBCHEM_COORDINATE_TYPE>
1
5
255

$$$$
