11159298
  -OEChem-08152605472D

  2  1  0     0  0  0  0  0  0999 V2000
    3.0000    0.0000    0.0000 Zr  0  3  0  0  0  0  0  0  0  0  0  0
    2.0000    0.0000    0.0000 C   0  5  0  0  0  0  0  0  0  0  0  0
  1  2  3  0  0  0  0
M  CHG  2   1   1   2  -1
M  END
> <PUBCHEM_COMPOUND_CID>
11159298

> <PUBCHEM_COMPOUND_CANONICALIZED>
1

> <PUBCHEM_CACTVS_COMPLEXITY>
10

> <PUBCHEM_CACTVS_HBOND_ACCEPTOR>
1

> <PUBCHEM_CACTVS_HBOND_DONOR>
0

> <PUBCHEM_CACTVS_ROTATABLE_BOND>
0

> <PUBCHEM_CACTVS_SUBSKEYS>
AAADcQAAAAAAAAAAAQAAAAAAAAAAAAAAAAAAAAAAAAAAAAAAAAAAAAAAAAAAAAAAAAAAAAAAAAAAAAAAAAAAAAAAAAAAAAAAAAAAAAAAAAAAAAAAAAAAAAAAAAAAAAAAAAAAAAAAAAAAAAAAAAAAAAAAAA==

> <PUBCHEM_IUPAC_OPENEYE_NAME>
methanidylidynezirconium(1+)

> <PUBCHEM_IUPAC_CAS_NAME>
methanidylidynezirconium(1+)

> <PUBCHEM_IUPAC_NAME_MARKUP>
methanidylidynezirconium(1+)

> <PUBCHEM_IUPAC_NAME>
methanidylidynezirconium(1+)

> <PUBCHEM_IUPAC_SYSTEMATIC_NAME>
methanidylidynezirconium(1+)

> <PUBCHEM_IUPAC_TRADITIONAL_NAME>
methanidylidynezirconium(1+)

> <PUBCHEM_IUPAC_INCHI>
InChI=1S/C.Zr/q-1;+1

> <PUBCHEM_IUPAC_INCHIKEY>
MHMXYYDKIQTOHA-UHFFFAOYSA-N

> <PUBCHEM_EXACT_MASS>
101.904699

> <PUBCHEM_MOLECULAR_FORMULA>
CZr

> <PUBCHEM_MOLECULAR_WEIGHT>
103.23

> <PUBCHEM_SMILES>
[C-]#[Zr+]

> <PUBCHEM_CONNECTIVITY_SMILES>
[C-]#[Zr+]

> <PUBCHEM_CACTVS_TPSA>
0

> <PUBCHEM_MONOISOTOPIC_WEIGHT>
101.904699

> <PUBCHEM_TOTAL_CHARGE>
0

> <PUBCHEM_HEAVY_ATOM_COUNT>
2

> <PUBCHEM_ATOM_DEF_STEREO_COUNT>
0

> <PUBCHEM_ATOM_UDEF_STEREO_COUNT>
0

> <PUBCHEM_BOND_DEF_STEREO_COUNT>
0

> <PUBCHEM_BOND_UDEF_STEREO_COUNT>
0

> <PUBCHEM_ISOTOPIC_ATOM_COUNT>
0

> <PUBCHEM_COMPONENT_COUNT>
1

> <PUBCHEM_CACTVS_TAUTO_COUNT>
-1

> <PUBCHEM_COORDINATE_TYPE>
1
5
255

$$$$
