84465
  -OEChem-08152605092D

  9  4  0     0  0  0  0  0  0999 V2000
    3.4030    0.0000    0.0000 Zr  0  0  0  0  0  0  0  0  0  0  0  0
    4.2690    0.5000    0.0000 O   0  5  0  0  0  0  0  0  0  0  0  0
    2.5369   -0.5000    0.0000 O   0  5  0  0  0  0  0  0  0  0  0  0
    2.9030    0.8660    0.0000 O   0  5  0  0  0  0  0  0  0  0  0  0
    3.9030   -0.8660    0.0000 O   0  5  0  0  0  0  0  0  0  0  0  0
    4.8059    0.1900    0.0000 H   0  0  0  0  0  0  0  0  0  0  0  0
    2.0000   -0.1900    0.0000 H   0  0  0  0  0  0  0  0  0  0  0  0
    3.2130    1.4030    0.0000 H   0  0  0  0  0  0  0  0  0  0  0  0
    3.5930   -1.4030    0.0000 H   0  0  0  0  0  0  0  0  0  0  0  0
  2  6  1  0  0  0  0
  3  7  1  0  0  0  0
  4  8  1  0  0  0  0
  5  9  1  0  0  0  0
M  CHG  5   1   4   2  -1   3  -1   4  -1   5  -1
M  END
> <PUBCHEM_COMPOUND_CID>
84465

> <PUBCHEM_COMPOUND_CANONICALIZED>
1

> <PUBCHEM_CACTVS_COMPLEXITY>
0

> <PUBCHEM_CACTVS_HBOND_ACCEPTOR>
4

> <PUBCHEM_CACTVS_HBOND_DONOR>
4

> <PUBCHEM_CACTVS_ROTATABLE_BOND>
0

> <PUBCHEM_CACTVS_SUBSKEYS>
AAADcYAAOAAAAAAAAQAAAAAAAAAAAAAAAAAAAAAAAAAAAAAAAAAAAAAACAAAAAAAAAAAAAAAAAAAAAAAAAAAAAAAAAAAAAAAAAAAAAAAAAAAAAAAAAAAAAAAAAAAAAAAAAAAAAAAAAAAAAAAAAAAAAAAAA==

> <PUBCHEM_IUPAC_OPENEYE_NAME>
zirconium(4+) tetrahydroxide

> <PUBCHEM_IUPAC_CAS_NAME>
zirconium(4+) tetrahydroxide

> <PUBCHEM_IUPAC_NAME_MARKUP>
zirconium(4+) tetrahydroxide

> <PUBCHEM_IUPAC_NAME>
zirconium(4+) tetrahydroxide

> <PUBCHEM_IUPAC_SYSTEMATIC_NAME>
zirconium(4+) tetrahydroxide

> <PUBCHEM_IUPAC_TRADITIONAL_NAME>
zirconium(4+) tetrahydroxide

> <PUBCHEM_IUPAC_INCHI>
InChI=1S/4H2O.Zr/h4*1H2;/q;;;;+4/p-4

> <PUBCHEM_IUPAC_INCHIKEY>
HAIMOVORXAUUQK-UHFFFAOYSA-J

> <PUBCHEM_EXACT_MASS>
157.915657

> <PUBCHEM_MOLECULAR_FORMULA>
H4O4Zr

> <PUBCHEM_MOLECULAR_WEIGHT>
159.25

> <PUBCHEM_SMILES>
[OH-].[OH-].[OH-].[OH-].[Zr+4]

> <PUBCHEM_CONNECTIVITY_SMILES>
[OH-].[OH-].[OH-].[OH-].[Zr+4]

> <PUBCHEM_CACTVS_TPSA>
4

> <PUBCHEM_MONOISOTOPIC_WEIGHT>
157.915657

> <PUBCHEM_TOTAL_CHARGE>
0

> <PUBCHEM_HEAVY_ATOM_COUNT>
5

> <PUBCHEM_ATOM_DEF_STEREO_COUNT>
0

> <PUBCHEM_ATOM_UDEF_STEREO_COUNT>
0

> <PUBCHEM_BOND_DEF_STEREO_COUNT>
0

> <PUBCHEM_BOND_UDEF_STEREO_COUNT>
0

> <PUBCHEM_ISOTOPIC_ATOM_COUNT>
0

> <PUBCHEM_COMPONENT_COUNT>
5

> <PUBCHEM_CACTVS_TAUTO_COUNT>
-1

> <PUBCHEM_COORDINATE_TYPE>
1
5
255

$$$$
