24237
  -OEChem-08152607202D

 29 24  0     0  0  0  0  0  0999 V2000
    4.5981    0.0000    0.0000 Zr  0  0  0  0  0  0  0  0  0  0  0  0
    5.4641    0.5000    0.0000 O   0  5  0  0  0  0  0  0  0  0  0  0
    3.7321   -0.5000    0.0000 O   0  5  0  0  0  0  0  0  0  0  0  0
    4.0981    0.8660    0.0000 O   0  5  0  0  0  0  0  0  0  0  0  0
    5.0981   -0.8660    0.0000 O   0  5  0  0  0  0  0  0  0  0  0  0
    6.3301   -1.0000    0.0000 O   0  0  0  0  0  0  0  0  0  0  0  0
    2.8660    1.0000    0.0000 O   0  0  0  0  0  0  0  0  0  0  0  0
    5.5981    1.7321    0.0000 O   0  0  0  0  0  0  0  0  0  0  0  0
    3.5981   -1.7321    0.0000 O   0  0  0  0  0  0  0  0  0  0  0  0
    7.1962    0.5000    0.0000 C   0  0  0  0  0  0  0  0  0  0  0  0
    2.0000   -0.5000    0.0000 C   0  0  0  0  0  0  0  0  0  0  0  0
    4.0981    2.5981    0.0000 C   0  0  0  0  0  0  0  0  0  0  0  0
    5.0981   -2.5981    0.0000 C   0  0  0  0  0  0  0  0  0  0  0  0
    6.3301    0.0000    0.0000 C   0  0  0  0  0  0  0  0  0  0  0  0
    2.8660   -0.0000    0.0000 C   0  0  0  0  0  0  0  0  0  0  0  0
    4.5981    1.7321    0.0000 C   0  0  0  0  0  0  0  0  0  0  0  0
    4.5981   -1.7321    0.0000 C   0  0  0  0  0  0  0  0  0  0  0  0
    7.5062   -0.0369    0.0000 H   0  0  0  0  0  0  0  0  0  0  0  0
    7.7331    0.8100    0.0000 H   0  0  0  0  0  0  0  0  0  0  0  0
    6.8862    1.0369    0.0000 H   0  0  0  0  0  0  0  0  0  0  0  0
    1.6900    0.0369    0.0000 H   0  0  0  0  0  0  0  0  0  0  0  0
    1.4631   -0.8100    0.0000 H   0  0  0  0  0  0  0  0  0  0  0  0
    2.3100   -1.0369    0.0000 H   0  0  0  0  0  0  0  0  0  0  0  0
    4.6350    2.9081    0.0000 H   0  0  0  0  0  0  0  0  0  0  0  0
    3.7881    3.1350    0.0000 H   0  0  0  0  0  0  0  0  0  0  0  0
    3.5611    2.2881    0.0000 H   0  0  0  0  0  0  0  0  0  0  0  0
    4.5611   -2.9081    0.0000 H   0  0  0  0  0  0  0  0  0  0  0  0
    5.4081   -3.1350    0.0000 H   0  0  0  0  0  0  0  0  0  0  0  0
    5.6350   -2.2881    0.0000 H   0  0  0  0  0  0  0  0  0  0  0  0
  2 14  1  0  0  0  0
  3 15  1  0  0  0  0
  4 16  1  0  0  0  0
  5 17  1  0  0  0  0
  6 14  2  0  0  0  0
  7 15  2  0  0  0  0
  8 16  2  0  0  0  0
  9 17  2  0  0  0  0
 10 14  1  0  0  0  0
 10 18  1  0  0  0  0
 10 19  1  0  0  0  0
 10 20  1  0  0  0  0
 11 15  1  0  0  0  0
 11 21  1  0  0  0  0
 11 22  1  0  0  0  0
 11 23  1  0  0  0  0
 12 16  1  0  0  0  0
 12 24  1  0  0  0  0
 12 25  1  0  0  0  0
 12 26  1  0  0  0  0
 13 17  1  0  0  0  0
 13 27  1  0  0  0  0
 13 28  1  0  0  0  0
 13 29  1  0  0  0  0
M  CHG  5   1   4   2  -1   3  -1   4  -1   5  -1
M  END
> <PUBCHEM_COMPOUND_CID>
24237

> <PUBCHEM_COMPOUND_CANONICALIZED>
1

> <PUBCHEM_CACTVS_COMPLEXITY>
25.5

> <PUBCHEM_CACTVS_HBOND_ACCEPTOR>
8

> <PUBCHEM_CACTVS_HBOND_DONOR>
0

> <PUBCHEM_CACTVS_ROTATABLE_BOND>
0

> <PUBCHEM_CACTVS_SUBSKEYS>
AAADccBwPAAAAAAAAQAAAAAAAAAAAAAAAAAAAAAAAAAAAAAAAAAAGgAAAAAAAACAgAACCAAAAAAIAACQCAAAAAAAAAAAAAAAAAAAAAAAAAAAAAAAAAAAAAAAAAAAAAAAAAAAAAAAAAAAAAAAAAAAAAAAAA==

> <PUBCHEM_IUPAC_OPENEYE_NAME>
zirconium(4+) tetraacetate

> <PUBCHEM_IUPAC_CAS_NAME>
zirconium(4+) tetraacetate

> <PUBCHEM_IUPAC_NAME_MARKUP>
zirconium(4+) tetraacetate

> <PUBCHEM_IUPAC_NAME>
zirconium(4+) tetraacetate

> <PUBCHEM_IUPAC_SYSTEMATIC_NAME>
zirconium(4+) tetraethanoate

> <PUBCHEM_IUPAC_TRADITIONAL_NAME>
zirconium(4+) tetraacetate

> <PUBCHEM_IUPAC_INCHI>
InChI=1S/4C2H4O2.Zr/c4*1-2(3)4;/h4*1H3,(H,3,4);/q;;;;+4/p-4

> <PUBCHEM_IUPAC_INCHIKEY>
MFFVROSEPLMJAP-UHFFFAOYSA-J

> <PUBCHEM_EXACT_MASS>
325.957916

> <PUBCHEM_MOLECULAR_FORMULA>
C8H12O8Zr

> <PUBCHEM_MOLECULAR_WEIGHT>
327.40

> <PUBCHEM_SMILES>
CC(=O)[O-].CC(=O)[O-].CC(=O)[O-].CC(=O)[O-].[Zr+4]

> <PUBCHEM_CONNECTIVITY_SMILES>
CC(=O)[O-].CC(=O)[O-].CC(=O)[O-].CC(=O)[O-].[Zr+4]

> <PUBCHEM_CACTVS_TPSA>
161

> <PUBCHEM_MONOISOTOPIC_WEIGHT>
325.957916

> <PUBCHEM_TOTAL_CHARGE>
0

> <PUBCHEM_HEAVY_ATOM_COUNT>
17

> <PUBCHEM_ATOM_DEF_STEREO_COUNT>
0

> <PUBCHEM_ATOM_UDEF_STEREO_COUNT>
0

> <PUBCHEM_BOND_DEF_STEREO_COUNT>
0

> <PUBCHEM_BOND_UDEF_STEREO_COUNT>
0

> <PUBCHEM_ISOTOPIC_ATOM_COUNT>
0

> <PUBCHEM_COMPONENT_COUNT>
5

> <PUBCHEM_CACTVS_TAUTO_COUNT>
-1

> <PUBCHEM_COORDINATE_TYPE>
1
5
255

$$$$
